13

  C   0.000000   0.000000   0.000000
  S   1.830000   0.000000   0.000000
  S   2.150691   2.024761   0.000000
  C   3.980691   2.024761  -0.000000
  H  -0.354869  -1.030615  -0.000000
  H  -0.354869   0.605780  -0.833785
  H  -0.354869   0.605780   0.833785
  H   4.335560   3.055376  -0.000000
  H   4.335560   1.418981   0.833785
  C   4.335560   1.418981  -0.833785
  H   5.425560   1.418981  -0.833785
  H   3.878317   1.780380  -1.754882
  H   3.878317   0.431287  -0.774709
13

  C   0.000000   0.000000   0.000000
  S   1.830000   0.000000   0.000000
  S   2.150691   2.024761   0.000000
  C   3.919861   2.034396  -0.467808
  H  -0.354869  -1.030615  -0.000000
  H  -0.354869   0.605780  -0.833785
  H  -0.354869   0.605780   0.833785
  H   4.268360   3.066020  -0.516796
  H   4.472888   1.397230   0.222324
  C   4.046602   1.464747  -1.388425
  H   5.100370   1.470486  -1.667065
  H   3.370999   1.860731  -2.146619
  H   3.614460   0.473078  -1.254466
13

  C   0.000000   0.000000   0.000000
  S   1.830000   0.000000   0.000000
  S   2.150691   2.024761   0.000000
  C   3.741517   2.062642  -0.903735
  H  -0.354869  -1.030615  -0.000000
  H  -0.354869   0.605780  -0.833785
  H  -0.354869   0.605780   0.833785
  H   4.071340   3.097225  -0.998373
  H   4.449226   1.400978  -0.404288
  C   3.625706   1.531410  -1.848447
  H   4.573248   1.553974  -2.386737
  H   2.780826   1.954205  -2.392066
  H   3.236953   0.532869  -1.648733
13

  C   0.000000   0.000000   0.000000
  S   1.830000   0.000000   0.000000
  S   2.150691   2.024761   0.000000
  C   3.457813   2.107577  -1.278074
  H  -0.354869  -1.030615  -0.000000
  H  -0.354869   0.605780  -0.833785
  H  -0.354869   0.605780   0.833785
  H   3.757927   3.146864  -1.411913
  H   4.266189   1.429968  -1.003349
  C   3.101556   1.614428  -2.182499
  H   3.880115   1.663755  -2.943757
  H   2.148019   2.054432  -2.474498
  H   2.771521   0.606586  -1.930642
13

  C   0.000000   0.000000   0.000000
  S   1.830000   0.000000   0.000000
  S   2.150691   2.024761   0.000000
  C   3.088082   2.166136  -1.565315
  H  -0.354869  -1.030615  -0.000000
  H  -0.354869   0.605780  -0.833785
  H  -0.354869   0.605780   0.833785
  H   3.349478   3.211556  -1.729233
  H   3.936249   1.482225  -1.534033
  C   2.509871   1.708141  -2.367818
  H   3.068208   1.792349  -3.300164
  H   1.515702   2.154581  -2.388297
  H   2.249883   0.689205  -2.080981
13

  C   0.000000   0.000000   0.000000
  S   1.830000   0.000000   0.000000
  S   2.150691   2.024761   0.000000
  C   2.657522   2.234330  -1.745882
  H  -0.354869  -1.030615  -0.000000
  H  -0.354869   0.605780  -0.833785
  H  -0.354869   0.605780   0.833785
  H   2.873830   3.286892  -1.928709
  H   3.481892   1.554188  -1.960175
  C   1.890973   1.806165  -2.391774
  H   2.192856   1.930991  -3.431671
  H   0.926966   2.247828  -2.139338
  H   1.707588   0.775097  -2.089504
13

  C   0.000000   0.000000   0.000000
  S   1.830000   0.000000   0.000000
  S   2.150691   2.024761   0.000000
  C   2.195474   2.307512  -1.807470
  H  -0.354869  -1.030615  -0.000000
  H  -0.354869   0.605780  -0.833785
  H  -0.354869   0.605780   0.833785
  H   2.363397   3.367736  -1.996746
  H   2.934080   1.640953  -2.252735
  C   1.287040   1.901819  -2.252735
  H   1.313714   2.070233  -3.329315
  H   0.421933   2.327817  -1.744587
  H   1.181592   0.858406  -1.955631
13

  C   0.000000   0.000000   0.000000
  S   1.830000   0.000000   0.000000
  S   2.150691   2.024761   0.000000
  C   1.733426   2.380693  -1.745882
  H  -0.354869  -1.030615  -0.000000
  H  -0.354869   0.605780  -0.833785
  H  -0.354869   0.605780   0.833785
  H   1.852964   3.448581  -1.928709
  H   2.330147   1.736607  -2.391774
  C   0.739228   1.988584  -1.960175
  H   0.490694   2.200587  -3.000072
  H   0.035020   2.389098  -1.230944
  H   0.707742   0.933457  -1.688485
13

  C   0.000000   0.000000   0.000000
  S   1.830000   0.000000   0.000000
  S   2.150691   2.024761   0.000000
  C   1.302866   2.448887  -1.565315
  H  -0.354869  -1.030615  -0.000000
  H  -0.354869   0.605780  -0.833785
  H  -0.354869   0.605780   0.833785
  H   1.377316   3.523916  -1.729233
  H   1.711249   1.834631  -2.367818
  C   0.284871   2.060547  -1.534033
  H  -0.220118   2.313168  -2.466379
  H  -0.207406   2.427495  -0.633415
  H   0.318329   0.995134  -1.306272
13

  C   0.000000   0.000000   0.000000
  S   1.830000   0.000000   0.000000
  S   2.150691   2.024761   0.000000
  C   0.410257   2.590262   0.000000
  H  -0.354869  -1.030615  -0.000000
  H  -0.354869   0.605780  -0.833785
  H  -0.354869   0.605780   0.833785
  H   0.391234   3.680096   0.000000
  H  -0.114440   2.123791  -0.833785
  C  -0.114440   2.123791   0.833785
  H  -1.151092   2.460620   0.833785
  H   0.432102   2.326207   1.754882
  H   0.015209   1.043143   0.774709
13

  C   0.000000   0.000000   0.000000
  S   1.830000   0.000000   0.000000
  S   2.150691   2.024761   0.000000
  C   0.471087   2.580628   0.467808
  H  -0.354869  -1.030615  -0.000000
  H  -0.354869   0.605780  -0.833785
  H  -0.354869   0.605780   0.833785
  H   0.458434   3.669453   0.516796
  H  -0.251768   2.145542  -0.222324
  C   0.174518   2.078025   1.388425
  H  -0.825902   2.409115   1.667065
  H   0.939420   2.245855   2.146619
  H   0.279066   1.001352   1.254466
13

  C   0.000000   0.000000   0.000000
  S   1.830000   0.000000   0.000000
  S   2.150691   2.024761   0.000000
  C   0.649431   2.552381   0.903735
  H  -0.354869  -1.030615  -0.000000
  H  -0.354869   0.605780  -0.833785
  H  -0.354869   0.605780   0.833785
  H   0.655454   3.638248   0.998373
  H  -0.228106   2.141794   0.404288
  C   0.595413   2.011362   1.848447
  H  -0.298779   2.325627   2.386737
  H   1.529593   2.152381   2.392066
  H   0.656574   0.941561   1.648733
13

  C   0.000000   0.000000   0.000000
  S   1.830000   0.000000   0.000000
  S   2.150691   2.024761   0.000000
  C   0.933135   2.507446   1.278074
  H  -0.354869  -1.030615  -0.000000
  H  -0.354869   0.605780  -0.833785
  H  -0.354869   0.605780   0.833785
  H   0.968867   3.588608   1.411913
  H  -0.045069   2.112804   1.003349
  C   1.119564   1.928344   2.182499
  H   0.394353   2.215846   2.943757
  H   2.162400   2.052154   2.474498
  H   1.122006   0.867844   1.930642
13

  C   0.000000   0.000000   0.000000
  S   1.830000   0.000000   0.000000
  S   2.150691   2.024761   0.000000
  C   1.302866   2.448887   1.565315
  H  -0.354869  -1.030615  -0.000000
  H  -0.354869   0.605780  -0.833785
  H  -0.354869   0.605780   0.833785
  H   1.377316   3.523916   1.729233
  H   0.284871   2.060547   1.534033
  C   1.711249   1.834631   2.367818
  H   1.206261   2.087252   3.300164
  H   2.794718   1.952005   2.388297
  H   1.643644   0.785224   2.080981
13

  C   0.000000   0.000000   0.000000
  S   1.830000   0.000000   0.000000
  S   2.150691   2.024761   0.000000
  C   1.733426   2.380693   1.745882
  H  -0.354869  -1.030615  -0.000000
  H  -0.354869   0.605780  -0.833785
  H  -0.354869   0.605780   0.833785
  H   1.852964   3.448581   1.928709
  H   0.739228   1.988584   1.960175
  C   2.330147   1.736607   2.391774
  H   2.081612   1.948610   3.431671
  H   3.383454   1.858758   2.139338
  H   2.185939   0.699333   2.089504
13

  C   0.000000   0.000000   0.000000
  S   1.830000   0.000000   0.000000
  S   2.150691   2.024761   0.000000
  C   2.195474   2.307512   1.807470
  H  -0.354869  -1.030615  -0.000000
  H  -0.354869   0.605780  -0.833785
  H  -0.354869   0.605780   0.833785
  H   2.363397   3.367736   1.996746
  H   1.287040   1.901819   2.252735
  C   2.934080   1.640953   2.252735
  H   2.960754   1.809368   3.329315
  H   3.888487   1.778769   1.744587
  H   2.711935   0.616024   1.955631
13

  C   0.000000   0.000000   0.000000
  S   1.830000   0.000000   0.000000
  S   2.150691   2.024761   0.000000
  C   2.657522   2.234330   1.745882
  H  -0.354869  -1.030615  -0.000000
  H  -0.354869   0.605780  -0.833785
  H  -0.354869   0.605780   0.833785
  H   2.873830   3.286892   1.928709
  H   1.890973   1.806165   2.391774
  C   3.481892   1.554188   1.960175
  H   3.783775   1.679014   3.000072
  H   4.275400   1.717488   1.230944
  H   3.185785   0.540973   1.688485
13

  C   0.000000   0.000000   0.000000
  S   1.830000   0.000000   0.000000
  S   2.150691   2.024761   0.000000
  C   3.088082   2.166136   1.565315
  H  -0.354869  -1.030615  -0.000000
  H  -0.354869   0.605780  -0.833785
  H  -0.354869   0.605780   0.833785
  H   3.349478   3.211556   1.729233
  H   2.509871   1.708141   2.367818
  C   3.936249   1.482225   1.534033
  H   4.494586   1.566432   2.466379
  H   4.517825   1.679091   0.633415
  H   3.575198   0.479296   1.306272
13

  C   0.000000   0.000000   0.000000
  S   1.830000   0.000000   0.000000
  S   2.150691   2.024761   0.000000
  C   3.457813   2.107577   1.278074
  H  -0.354869  -1.030615  -0.000000
  H  -0.354869   0.605780  -0.833785
  H  -0.354869   0.605780   0.833785
  H   3.757927   3.146864   1.411913
  H   3.101556   1.614428   2.182499
  C   4.266189   1.429968   1.003349
  H   5.044748   1.479295   1.764606
  H   4.599243   1.666196  -0.007280
  H   3.853636   0.435196   0.835038
13

  C   0.000000   0.000000   0.000000
  S   1.830000   0.000000   0.000000
  S   2.150691   2.024761   0.000000
  C   3.741517   2.062642   0.903735
  H  -0.354869  -1.030615  -0.000000
  H  -0.354869   0.605780  -0.833785
  H  -0.354869   0.605780   0.833785
  H   4.071340   3.097225   0.998373
  H   3.625706   1.531410   1.848447
  C   4.449226   1.400978   0.404288
  H   5.396768   1.423541   0.942578
  H   4.514103   1.679681  -0.647480
  H   4.002124   0.411678   0.306898
13

  C   0.000000   0.000000   0.000000
  S   1.830000   0.000000   0.000000
  S   2.150691   2.024761   0.000000
  C   3.919861   2.034396   0.467808
  H  -0.354869  -1.030615  -0.000000
  H  -0.354869   0.605780  -0.833785
  H  -0.354869   0.605780   0.833785
  H   4.268360   3.066020   0.516796
  H   4.046602   1.464747   1.388425
  C   4.472888   1.397230  -0.222324
  H   5.526656   1.402969   0.056315
  H   4.268209   1.718627  -1.243554
  H   4.010542   0.410344  -0.242157
13

  C   0.000000   0.000000   0.000000
  S   1.830000   0.000000   0.000000
  S   2.150691   2.024761   0.000000
  C   3.980691   2.024761   0.000000
  H  -0.354869  -1.030615  -0.000000
  H  -0.354869   0.605780  -0.833785
  H  -0.354869   0.605780   0.833785
  H   4.335560   3.055376   0.000000
  H   4.335560   1.418981   0.833785
  C   4.335560   1.418981  -0.833785
  H   5.425560   1.418981  -0.833785
  H   3.878317   1.780380  -1.754882
  H   3.878317   0.431287  -0.774709
