26
Coordinates from ORCA-job mol
  C   0.46578750475425      0.25203331153576     -0.23355358778898
  S   2.20347181242170     -0.34636872573817     -0.06903485651363
  S   3.26261207543728      1.45508550066011      0.08821086624467
  C   3.00702969403716      1.90327961962756      1.86301465882376
  H   0.32039502757301      0.72002228027357     -1.20521296922877
  H   0.25097271430703      0.97624561627393      0.55155008905146
  H   3.97858557550679      2.00079085543995      2.34531237863708
  H   2.45121002053183      1.11330408795796      2.35979507118804
  C   2.23452395407562      3.24155444341534      2.00828452680382
  H   2.13430526898380      3.45116116096306      3.07704269898219
  N   0.90109133175891      3.18178108372698      1.42220984113786
  C   3.12110396450981      4.39261316431206      1.41329195535131
  O   4.30544795520283      4.33074378281978      1.20591219361713
  O   2.37253091223498      5.51227951451731      1.15261519452696
  H   0.94013359695340      3.07472111831605      0.41478895963725
  H   0.34661071402022      3.99699016060417      1.66179195840666
  H   2.93761938079001      6.22272413902620      0.78438179461004
  C   -0.51688274484219     -0.94998312753673     -0.11188508368536
  H   -1.52646447597098     -0.54538112780923     -0.21682401229188
  N   -0.45211286655831     -1.71437413534456      1.13425420616967
  C   -0.32590981161676     -1.93344661502806     -1.33835482583671
  O   -0.12497828841888     -1.55534114154028     -2.46070739350134
  O   -0.44591952841241     -3.24445209651085     -0.99720104739973
  H   0.48336910225302     -1.75976105222841      1.52367220234595
  H   -1.10327620694697     -1.38929588658604      1.83888655037636
  H   -0.55966668258516     -3.28490993114746     -0.01711336966380
