26
Coordinates from ORCA-job mol
  C   -0.08143272281767     -0.22338382293849      0.06340380691768
  S   1.75094395905791     -0.06189057343561      0.01931632448490
  S   2.09177620970879      2.04585670023000     -0.23169656488770
  C   0.40137881097713      2.77451434379190     -0.29359068715544
  H   -0.52570472734242      0.22148559033253     -0.82478826533669
  H   -0.49100060483371      0.25269360990073      0.95038135586678
  H   -0.20166547698190      2.41250082038190      0.53427719554926
  H   -0.08667764101795      2.53920346548325     -1.23698556862142
  C   0.51852048832568      4.32108334543596     -0.15876381951574
  H   -0.49917105875627      4.71640753551323     -0.23579590461174
  N   1.32016835104709      4.91555152121544     -1.21078445848381
  C   0.99139812521270      4.65570127853815      1.30610661013450
  O   0.59102697999406      4.11610083831462      2.30574583833338
  O   1.90771028624736      5.67508120070350      1.32012949876137
  H   2.27221277888079      4.57338728623529     -1.23916277452452
  H   1.31019598029823      5.92761900110174     -1.18350694507808
  H   2.18715432492762      5.86971648962761      2.23884463659055
  C   -0.45342542080908     -1.73819807295550      0.06275114366987
  H   -1.53526017440982     -1.79654233880598      0.20810773752118
  N   0.18403211484045     -2.58774775519843      1.06394117729807
  C   -0.18943667990814     -2.34602622855680     -1.37361195967506
  O   -0.36276063546083     -1.73021242977211     -2.39046376479689
  O   0.20554186068828     -3.64695297081113     -1.33668754304659
  H   1.15489676929265     -2.35709229347521      1.23893939598610
  H   -0.32696086506354     -2.64142836941724      1.93570964996482
  H   0.30894296790259     -3.89977317143935     -0.38884911534478
