26
Coordinates from ORCA-job mol
  C   -0.62281844171752     -0.08047742560114     -0.81709268578542
  S   0.82576891125461      0.82569670193131     -1.51934998017388
  S   0.39388886888853      2.84766952203897     -1.06888834384179
  C   -0.02138301318114      2.83306328817107      0.72906520276359
  H   -1.17484041345532     -0.54395972457899     -1.63430777137562
  H   -1.29151325624460      0.60780302793988     -0.31013437991335
  H   -0.13636925724776      1.81410975765747      1.08362195195853
  H   -0.96787737779474      3.35564268506321      0.85854543523586
  C   1.05479685782692      3.56033836018779      1.58514945772276
  H   0.71387474332739      3.54809242133774      2.62495303115220
  N   1.21707254813649      4.94100851923511      1.16978950676400
  C   2.38345015640176      2.71770280142863      1.55708049652313
  O   2.45265891352433      1.51426611921383      1.59442553980410
  O   3.48908343657084      3.52111832456325      1.51594390149833
  H   1.53618694991889      5.02324889344976      0.21184162325506
  H   1.82845104903331      5.46295224674066      1.78608275011330
  H   4.30649147400588      2.98055026657628      1.49209343844234
  C   -0.15989424778211     -1.20395180958828      0.15791606649665
  H   -1.04857276089127     -1.78097930804757      0.42725904208895
  N   0.51143199211154     -0.80496083856645      1.38434621446945
  C   0.78317081894072     -2.20391822282422     -0.61853542492902
  O   0.71063176885264     -2.39924265871085     -1.80258869132510
  O   1.66734043651198     -2.83602369276865      0.19840111465877
  H   1.21728450863441     -0.08216264487725      1.27016098772069
  H   -0.11561347720999     -0.59282220458432      2.14691360999759
  H   1.59423681158419     -2.41577440538724      1.08862590667888
