23
Coordinates from ORCA-job mol
  N   -0.37306200000000     -0.51997200000000     -2.81365900000000
  C   -1.33406200000000      0.06902800000000     -1.82665900000000
  C   -0.60506200000000      0.92802800000000     -0.81865900000000
  O   -1.12706200000000      1.90602800000000     -0.32365900000000
  C   -1.94606200000000     -1.12297200000000     -1.06465900000000
  S   -0.79406200000000     -1.68997200000000      0.25134100000000
  N   0.56593800000000      0.49602800000000     -0.44165900000000
  C   1.31093800000000      1.19102800000000      0.62034100000000
  C   2.81893800000000      1.10802800000000      0.34434100000000
  O   3.31393800000000      0.07102800000000     -0.06065900000000
  C   0.91593800000000      0.37102800000000      1.86434100000000
  S   -0.81606200000000     -0.23897200000000      1.69234100000000
  H   0.60388100000000     -0.31911600000000     -2.74128100000000
  H   -0.70857000000000     -1.11396600000000     -3.54482600000000
  H   0.66255000000000     -0.42771000000000     -0.07102000000000
  H   1.31618000000000      0.44531200000000     -1.10087400000000
  H   -1.99933200000000      0.63250100000000     -2.31646900000000
  H   1.03686900000000      2.15242700000000      0.64480000000000
  H   -2.80795200000000     -0.84067600000000     -0.64340500000000
  H   -2.10859200000000     -1.87635700000000     -1.70183600000000
  H   3.23683200000000      1.99282100000000      0.55051200000000
  H   0.97825700000000      0.94900000000000      2.67801500000000
  H   1.52977400000000     -0.41315300000000      1.95525300000000
