26
Coordinates from ORCA-job mol
  C   -0.10458363326637     -0.16549934589519     -1.19499960821974
  S   1.67202689045888      0.09632332458483     -1.59339835109920
  S   2.07593630487907      1.59048892662009     -0.11609047296931
  C   3.85431918638119      1.83609516477093     -0.53289464176599
  H   -0.59432989753784     -0.46599211954201     -2.12277361659465
  H   -0.55541810172702      0.76711939847108     -0.86387385943476
  H   3.97075455854660      1.88256825789280     -1.61545633096623
  H   4.45435507533606      1.01717687707301     -0.14123893999716
  C   4.36050158765596      3.17527250792211      0.07565514286720
  H   5.43087066685595      3.23427651132591     -0.14261295690796
  N   4.18091377627584      3.23267924737538      1.51568651639732
  C   3.69441122071201      4.36345343371391     -0.71356652673313
  O   3.59112942105166      4.43282126281906     -1.91094885282451
  O   3.25227393208169      5.34762842322520      0.13407369020409
  H   3.20706625422512      3.24348996224613      1.79325933861285
  H   4.66437938813648      4.01852419071579      1.93374769685688
  H   2.84546588576618      6.07758471537651     -0.37739151547103
  C   -0.33983872996774     -1.29736115725387     -0.15042599986111
  H   -1.41291113730773     -1.33248072749480      0.05678138866469
  N   0.36737567439696     -1.20847673266425      1.11990976896249
  C   0.01842232393580     -2.68417115324093     -0.81536327603433
  O   -0.08373137780805     -2.90228864678734     -1.99273719524831
  O   0.42564568876829     -3.61635749876651      0.08845913793430
  H   1.33842659592743     -0.93940179175987      1.01372891785600
  H   -0.08551718145611     -0.61354313566452      1.80147139425213
  H   0.50542262767967     -3.16697189506347      0.96270715151945
