26
Coordinates from ORCA-job mol
  C   -0.17900869960402     -0.07167470231546     -1.06436958555205
  S   1.59601953344646      0.23809702738636     -1.44161884886195
  S   1.96972773498550      1.71071671404896      0.07283567418106
  C   3.79651481643453      1.74984713215029     -0.13513222320961
  H   -0.67906658021026     -0.26770848400903     -2.01389869119130
  H   -0.63284899166022      0.81634089351178     -0.62985000799156
  H   4.06553189586542      1.70161801002007     -1.18960192861802
  H   4.26340640339859      0.91792598558769      0.38679241292951
  C   4.27197069803418      3.10188206033773      0.46269482444209
  H   5.35942507400384      3.05728877411621      0.60269875472610
  N   3.52976186114622      3.39703322557794      1.68178270572024
  C   4.02454987283669      4.22431422580161     -0.59375378583954
  O   4.04435817150724      4.06880966609561     -1.78629145287115
  O   3.83093267192313      5.44528424318492     -0.00091965584137
  H   3.84063167777252      2.85475625830027      2.47727973336384
  H   3.49012723698124      4.38666443841270      1.89066199317945
  H   3.68010345755325      6.13428275718274     -0.68067643052632
  C   -0.41861989222678     -1.30622253780222     -0.14518342042934
  H   -1.49810774487937     -1.38710773678579      0.00096341430692
  N   0.26947279054426     -1.27002655570306      1.14200557176318
  C   0.02876667198180     -2.60780455736981     -0.93385938937954
  O   -0.37372499586138     -2.87872992699099     -2.03496743693189
  O   0.91256428418775     -3.37095181281416     -0.24248043751974
  H   0.95834567424155     -0.53533367053376      1.22740430493642
  H   -0.34728488351063     -1.29585328850255      1.94193326383597
  H   1.06183526110846     -2.91140013888806      0.62073764137861
