26

  C   0.000000   0.000000   0.000000
  S   1.830000   0.000000   0.000000
  S   2.150691   2.024761   0.000000
  C   0.649431   2.552381   0.903735
  H  -0.354869   0.605780  -0.833785
  H  -0.354869   0.605780   0.833785
  H   0.595414   2.011362   1.848447
  H  -0.228106   2.141795   0.404288
  C   0.657941   4.086542   1.037445
  H  -0.236251   4.400807   1.575735
  N   0.815659   4.682385  -0.297096
  C   1.986675   4.526477   1.679726
  O   2.786889   3.734030   1.957725
  O   2.242902   5.913724   1.913802
  H   0.881869   4.087933  -1.110940
  H   0.842639   5.686579  -0.401815
  H   3.109333   6.007952   2.316315
  C  -0.501375  -1.456099  -0.000000
  H  -1.591375  -1.456099  -0.000000
  N   0.115273  -2.174589   1.124463
  C   0.144637  -2.208803  -1.178009
  O   0.892290  -1.661514  -1.875927
  O  -0.160728  -3.588268  -1.398754
  H   0.742892  -1.690029   1.750079
  H  -0.100404  -3.148897   1.280374
  H  -0.691506  -4.295448  -1.024894
