26

  C   0.000000   0.000000   0.000000
  S   1.830000   0.000000   0.000000
  S   2.150691   2.024761   0.000000
  C   0.517919   2.573211   0.618191
  H  -0.354869   0.605780  -0.833785
  H  -0.354869   0.605780   0.833785
  H   0.301405   2.057928   1.553983
  H  -0.261916   2.147150  -0.013021
  C   0.506971   4.110453   0.709654
  H  -0.465553   4.437125   1.077866
  N   0.892638   4.670192  -0.593747
  C   1.706887   4.570791   1.558118
  O   2.445702   3.788069   1.990666
  O   1.922427   5.964482   1.794900
  H   1.096054   4.054009  -1.367723
  H   0.939536   5.671232  -0.719526
  H   2.707204   6.071643   2.337340
  C  -0.501375  -1.456099  -0.000000
  H  -1.591375  -1.456099  -0.000000
  N   0.115273  -2.174589   1.124463
  C   0.144637  -2.208803  -1.178009
  O   0.892290  -1.661514  -1.875927
  O  -0.160728  -3.588268  -1.398754
  H   0.742892  -1.690029   1.750079
  H  -0.100404  -3.148897   1.280374
  H  -0.691506  -4.295448  -1.024894
