26

  C   0.000000   0.000000   0.000000
  S   1.830000   0.000000   0.000000
  S   2.150691   2.024761   0.000000
  C   0.827919   2.524111   1.161819
  H  -0.354869   0.605780  -0.833785
  H  -0.354869   0.605780   0.833785
  H   0.935460   1.957504   2.086747
  H  -0.123237   2.125185   0.809313
  C   0.862836   4.054089   1.333713
  H   0.074956   4.351516   2.025725
  N   0.790728   4.686333   0.008583
  C   2.283068   4.479533   1.750295
  O   3.117242   3.681707   1.865300
  O   2.578901   5.860507   1.974554
  H   0.714979   4.114366  -0.820401
  H   0.801705   5.693063  -0.071894
  H   3.501748   5.945800   2.224909
  C  -0.501375  -1.456099  -0.000000
  H  -1.591375  -1.456099  -0.000000
  N   0.115273  -2.174589   1.124463
  C   0.144637  -2.208803  -1.178009
  O   0.892290  -1.661514  -1.875927
  O  -0.160728  -3.588268  -1.398754
  H   0.742892  -1.690029   1.750079
  H  -0.100404  -3.148897   1.280374
  H  -0.691506  -4.295448  -1.024894
