26

  C   0.000000   0.000000   0.000000
  S   1.830000   0.000000   0.000000
  S   2.150691   2.024761   0.000000
  C   3.980691   2.024761  -0.000000
  H  -0.354869   0.605780  -0.833785
  H  -0.354869   0.605780   0.833785
  H   4.335560   1.418980  -0.833786
  H   4.335560   1.418980   0.833785
  C   4.482067   3.480859  -0.000001
  H   5.572066   3.480859  -0.000001
  N   3.865418   4.199350   1.124462
  C   3.836054   4.233564  -1.178009
  O   3.088402   3.686275  -1.875928
  O   4.141420   5.613028  -1.398755
  H   3.237799   3.714790   1.750078
  H   4.081096   5.173658   1.280373
  H   3.656579   5.921277  -2.167853
  C  -0.501375  -1.456099  -0.000000
  H  -1.591375  -1.456099  -0.000000
  N   0.115273  -2.174589   1.124463
  C   0.144637  -2.208803  -1.178009
  O   0.892290  -1.661514  -1.875927
  O  -0.160728  -3.588268  -1.398754
  H   0.742892  -1.690029   1.750079
  H  -0.100404  -3.148897   1.280374
  H  -0.691506  -4.295448  -1.024894
