26

  C   0.000000   0.000000   0.000000
  S   1.830000   0.000000   0.000000
  S   2.150691   2.024761   0.000000
  C   0.410257   2.590263   0.000000
  H  -0.354869   0.605780  -0.833785
  H  -0.354869   0.605780   0.833785
  H  -0.114440   2.123792   0.833786
  H  -0.114439   2.123792  -0.833785
  C   0.383381   4.130028   0.000001
  H  -0.653270   4.466856   0.000001
  N   1.191874   4.622798  -1.124462
  C   1.230374   4.646263   1.178009
  O   1.772312   3.894723   1.875928
  O   1.366233   6.052575   1.398755
  H   1.639038   3.968009  -1.750078
  H   1.287830   5.616068  -1.280373
  H   1.922597   6.195913   2.167853
  C  -0.501375  -1.456099  -0.000000
  H  -1.591375  -1.456099  -0.000000
  N   0.115273  -2.174589   1.124463
  C   0.144637  -2.208803  -1.178009
  O   0.892290  -1.661514  -1.875927
  O  -0.160728  -3.588268  -1.398754
  H   0.742892  -1.690029   1.750079
  H  -0.100404  -3.148897   1.280374
  H  -0.691506  -4.295448  -1.024894
