26

  C   0.000000   0.000000   0.000000
  S   1.830000   0.000000   0.000000
  S   2.150691   2.024761   0.000000
  C   3.741518   2.062642   0.903735
  H  -0.354869   0.605780  -0.833785
  H  -0.354869   0.605780   0.833785
  H   4.449227   1.400977   0.404288
  H   3.625707   1.531410   1.848446
  C   4.207507   3.524345   1.037444
  H   5.155048   3.546908   1.575733
  N   3.131015   4.315668   1.650530
  C   4.243259   4.169069  -0.360646
  O   3.926657   3.553508  -1.291477
  O   4.646284   5.533065  -0.508912
  H   2.266437   3.868639   1.920285
  H   3.261678   5.303441   1.815857
  H   4.611006   5.770110  -1.438517
  C  -0.501375  -1.456099  -0.000000
  H  -1.591375  -1.456099  -0.000000
  N   0.115273  -2.174589   1.124463
  C   0.144637  -2.208803  -1.178009
  O   0.892290  -1.661514  -1.875927
  O  -0.160728  -3.588268  -1.398754
  H   0.742892  -1.690029   1.750079
  H  -0.100404  -3.148897   1.280374
  H  -0.691506  -4.295448  -1.024894
