26

  C   0.000000   0.000000   0.000000
  S   1.830000   0.000000   0.000000
  S   2.150691   2.024761   0.000000
  C   1.047959   2.489260   1.384602
  H  -0.354869   0.605780  -0.833785
  H  -0.354869   0.605780   0.833785
  H   1.311211   1.897991   2.261642
  H   0.049505   2.097826   1.189748
  C   1.115432   4.014082   1.589457
  H   0.458614   4.290751   2.414165
  N   0.818603   4.681918   0.314001
  C   2.587062   4.431385   1.767683
  O   3.426725   3.632690   1.716199
  O   2.920215   5.806448   1.975311
  H   0.600454   4.132505  -0.504934
  H   0.817978   5.690485   0.260211
  H   3.872523   5.887074   2.065901
  C  -0.501375  -1.456099  -0.000000
  H  -1.591375  -1.456099  -0.000000
  N   0.115273  -2.174589   1.124463
  C   0.144637  -2.208803  -1.178009
  O   0.892290  -1.661514  -1.875927
  O  -0.160728  -3.588268  -1.398754
  H   0.742892  -1.690029   1.750079
  H  -0.100404  -3.148897   1.280374
  H  -0.691506  -4.295448  -1.024894
