26

  C   0.000000   0.000000   0.000000
  S   1.830000   0.000000   0.000000
  S   2.150691   2.024761   0.000000
  C   0.437379   2.585967   0.313864
  H  -0.354869   0.605780  -0.833785
  H  -0.354869   0.605780   0.833785
  H   0.062366   2.095789   1.212302
  H  -0.223639   2.141087  -0.429935
  C   0.414515   4.125096   0.360301
  H  -0.605982   4.459366   0.547248
  N   1.019326   4.650127  -0.872358
  C   1.452208   4.611128   1.389168
  O   2.104050   3.842181   1.963121
  O   1.627214   6.011240   1.621461
  H   1.351026   4.013626  -1.582949
  H   1.089451   5.647488  -1.015376
  H   2.307578   6.134938   2.287346
  C  -0.501375  -1.456099  -0.000000
  H  -1.591375  -1.456099  -0.000000
  N   0.115273  -2.174589   1.124463
  C   0.144637  -2.208803  -1.178009
  O   0.892290  -1.661514  -1.875927
  O  -0.160728  -3.588268  -1.398754
  H   0.742892  -1.690029   1.750079
  H  -0.100404  -3.148897   1.280374
  H  -0.691506  -4.295448  -1.024894
