26

  C   0.000000   0.000000   0.000000
  S   1.830000   0.000000   0.000000
  S   2.150691   2.024761   0.000000
  C   3.953570   2.029056   0.313864
  H  -0.354869   0.605780  -0.833785
  H  -0.354869   0.605780   0.833785
  H   4.444760   1.401685  -0.429935
  H   4.158754   1.446984   1.212301
  C   4.450933   3.485790   0.360300
  H   5.524778   3.488348   0.547246
  N   3.652253   4.233112   1.342401
  C   4.018301   4.204699  -0.931057
  O   3.400146   3.636899  -1.731735
  O   4.360240   5.578370  -1.133548
  H   2.925498   3.764253   1.864032
  H   3.840281   5.211799   1.506467
  H   4.015217   5.864474  -1.982490
  C  -0.501375  -1.456099  -0.000000
  H  -1.591375  -1.456099  -0.000000
  N   0.115273  -2.174589   1.124463
  C   0.144637  -2.208803  -1.178009
  O   0.892290  -1.661514  -1.875927
  O  -0.160728  -3.588268  -1.398754
  H   0.742892  -1.690029   1.750079
  H  -0.100404  -3.148897   1.280374
  H  -0.691506  -4.295448  -1.024894
