26

  C   0.000000   0.000000   0.000000
  S   1.830000   0.000000   0.000000
  S   2.150691   2.024761   0.000000
  C   0.410257   2.590263   0.000000
  H  -0.354869   0.605780  -0.833785
  H  -0.354869   0.605780   0.833785
  H  -0.114440   2.123792   0.833786
  H  -0.114439   2.123792  -0.833785
  C   0.383381   4.130028   0.000001
  H  -0.653270   4.466856   0.000001
  N   1.191874   4.622798  -1.124462
  C   1.230374   4.646263   1.178009
  O   1.772312   3.894723   1.875928
  O   1.366233   6.052575   1.398755
  H   1.639038   3.968009  -1.750078
  H   1.287830   5.616068  -1.280373
  H   1.922597   6.195913   2.167853
  C  -0.501375  -1.456099  -0.000000
  H  -1.591375  -1.456099  -0.000000
  N   0.115273  -2.174589   1.124463
  C   0.144637  -2.208803  -1.178009
  O   0.892290  -1.661514  -1.875927
  O  -0.160728  -3.588268  -1.398754
  H   0.742892  -1.690029   1.750079
  H  -0.100404  -3.148897   1.280374
  H  -0.691506  -4.295448  -1.024894
26

  C   0.000000   0.000000   0.000000
  S   1.830000   0.000000   0.000000
  S   2.150691   2.024761   0.000000
  C   0.437379   2.585967   0.313864
  H  -0.354869   0.605780  -0.833785
  H  -0.354869   0.605780   0.833785
  H   0.062366   2.095789   1.212302
  H  -0.223639   2.141087  -0.429935
  C   0.414515   4.125096   0.360301
  H  -0.605982   4.459366   0.547248
  N   1.019326   4.650127  -0.872358
  C   1.452208   4.611128   1.389168
  O   2.104050   3.842181   1.963121
  O   1.627214   6.011240   1.621461
  H   1.351026   4.013626  -1.582949
  H   1.089451   5.647488  -1.015376
  H   2.307578   6.134938   2.287346
  C  -0.501375  -1.456099  -0.000000
  H  -1.591375  -1.456099  -0.000000
  N   0.115273  -2.174589   1.124463
  C   0.144637  -2.208803  -1.178009
  O   0.892290  -1.661514  -1.875927
  O  -0.160728  -3.588268  -1.398754
  H   0.742892  -1.690029   1.750079
  H  -0.100404  -3.148897   1.280374
  H  -0.691506  -4.295448  -1.024894
26

  C   0.000000   0.000000   0.000000
  S   1.830000   0.000000   0.000000
  S   2.150691   2.024761   0.000000
  C   0.517919   2.573211   0.618191
  H  -0.354869   0.605780  -0.833785
  H  -0.354869   0.605780   0.833785
  H   0.301405   2.057928   1.553983
  H  -0.261916   2.147150  -0.013021
  C   0.506971   4.110453   0.709654
  H  -0.465553   4.437125   1.077866
  N   0.892638   4.670192  -0.593747
  C   1.706887   4.570791   1.558118
  O   2.445702   3.788069   1.990666
  O   1.922427   5.964482   1.794900
  H   1.096054   4.054009  -1.367723
  H   0.939536   5.671232  -0.719526
  H   2.707204   6.071643   2.337340
  C  -0.501375  -1.456099  -0.000000
  H  -1.591375  -1.456099  -0.000000
  N   0.115273  -2.174589   1.124463
  C   0.144637  -2.208803  -1.178009
  O   0.892290  -1.661514  -1.875927
  O  -0.160728  -3.588268  -1.398754
  H   0.742892  -1.690029   1.750079
  H  -0.100404  -3.148897   1.280374
  H  -0.691506  -4.295448  -1.024894
26

  C   0.000000   0.000000   0.000000
  S   1.830000   0.000000   0.000000
  S   2.150691   2.024761   0.000000
  C   0.649431   2.552381   0.903735
  H  -0.354869   0.605780  -0.833785
  H  -0.354869   0.605780   0.833785
  H   0.595414   2.011362   1.848447
  H  -0.228106   2.141795   0.404288
  C   0.657941   4.086542   1.037445
  H  -0.236251   4.400807   1.575735
  N   0.815659   4.682385  -0.297096
  C   1.986675   4.526477   1.679726
  O   2.786889   3.734030   1.957725
  O   2.242902   5.913724   1.913802
  H   0.881869   4.087933  -1.110940
  H   0.842639   5.686579  -0.401815
  H   3.109333   6.007952   2.316315
  C  -0.501375  -1.456099  -0.000000
  H  -1.591375  -1.456099  -0.000000
  N   0.115273  -2.174589   1.124463
  C   0.144637  -2.208803  -1.178009
  O   0.892290  -1.661514  -1.875927
  O  -0.160728  -3.588268  -1.398754
  H   0.742892  -1.690029   1.750079
  H  -0.100404  -3.148897   1.280374
  H  -0.691506  -4.295448  -1.024894
26

  C   0.000000   0.000000   0.000000
  S   1.830000   0.000000   0.000000
  S   2.150691   2.024761   0.000000
  C   0.827919   2.524111   1.161819
  H  -0.354869   0.605780  -0.833785
  H  -0.354869   0.605780   0.833785
  H   0.935460   1.957504   2.086747
  H  -0.123237   2.125185   0.809313
  C   0.862836   4.054089   1.333713
  H   0.074956   4.351516   2.025725
  N   0.790728   4.686333   0.008583
  C   2.283068   4.479533   1.750295
  O   3.117242   3.681707   1.865300
  O   2.578901   5.860507   1.974554
  H   0.714979   4.114366  -0.820401
  H   0.801705   5.693063  -0.071894
  H   3.501748   5.945800   2.224909
  C  -0.501375  -1.456099  -0.000000
  H  -1.591375  -1.456099  -0.000000
  N   0.115273  -2.174589   1.124463
  C   0.144637  -2.208803  -1.178009
  O   0.892290  -1.661514  -1.875927
  O  -0.160728  -3.588268  -1.398754
  H   0.742892  -1.690029   1.750079
  H  -0.100404  -3.148897   1.280374
  H  -0.691506  -4.295448  -1.024894
26

  C   0.000000   0.000000   0.000000
  S   1.830000   0.000000   0.000000
  S   2.150691   2.024761   0.000000
  C   1.047959   2.489260   1.384602
  H  -0.354869   0.605780  -0.833785
  H  -0.354869   0.605780   0.833785
  H   1.311211   1.897991   2.261642
  H   0.049505   2.097826   1.189748
  C   1.115432   4.014082   1.589457
  H   0.458614   4.290751   2.414165
  N   0.818603   4.681918   0.314001
  C   2.587062   4.431385   1.767683
  O   3.426725   3.632690   1.716199
  O   2.920215   5.806448   1.975311
  H   0.600454   4.132505  -0.504934
  H   0.817978   5.690485   0.260211
  H   3.872523   5.887074   2.065901
  C  -0.501375  -1.456099  -0.000000
  H  -1.591375  -1.456099  -0.000000
  N   0.115273  -2.174589   1.124463
  C   0.144637  -2.208803  -1.178009
  O   0.892290  -1.661514  -1.875927
  O  -0.160728  -3.588268  -1.398754
  H   0.742892  -1.690029   1.750079
  H  -0.100404  -3.148897   1.280374
  H  -0.691506  -4.295448  -1.024894
26

  C   0.000000   0.000000   0.000000
  S   1.830000   0.000000   0.000000
  S   2.150691   2.024761   0.000000
  C   1.302866   2.448887   1.565315
  H  -0.354869   0.605780  -0.833785
  H  -0.354869   0.605780   0.833785
  H   1.711250   1.834631   2.367819
  H   0.284871   2.060547   1.534033
  C   1.408053   3.967735   1.796906
  H   0.903065   4.220357   2.729252
  N   0.898437   4.669274   0.609878
  C   2.889420   4.383496   1.731361
  O   3.705934   3.588467   1.514951
  O   3.256473   5.753190   1.916048
  H   0.541776   4.141798  -0.174126
  H   0.890963   5.678926   0.584410
  H   4.210394   5.833561   1.844122
  C  -0.501375  -1.456099  -0.000000
  H  -1.591375  -1.456099  -0.000000
  N   0.115273  -2.174589   1.124463
  C   0.144637  -2.208803  -1.178009
  O   0.892290  -1.661514  -1.875927
  O  -0.160728  -3.588268  -1.398754
  H   0.742892  -1.690029   1.750079
  H  -0.100404  -3.148897   1.280374
  H  -0.691506  -4.295448  -1.024894
26

  C   0.000000   0.000000   0.000000
  S   1.830000   0.000000   0.000000
  S   2.150691   2.024761   0.000000
  C   1.584894   2.404218   1.698466
  H  -0.354869   0.605780  -0.833785
  H  -0.354869   0.605780   0.833785
  H   2.123422   1.769349   2.402050
  H   0.575710   2.014483   1.831707
  C   1.731808   3.916458   1.949757
  H   1.394803   4.142473   2.961411
  N   1.027804   4.648784   0.887224
  C   3.180954   4.337321   1.642432
  O   3.946384   3.550384   1.267673
  O   3.577458   5.702351   1.798567
  H   0.540726   4.141965   0.161974
  H   1.018442   5.658735   0.890852
  H   4.505095   5.786885   1.566310
  C  -0.501375  -1.456099  -0.000000
  H  -1.591375  -1.456099  -0.000000
  N   0.115273  -2.174589   1.124463
  C   0.144637  -2.208803  -1.178009
  O   0.892290  -1.661514  -1.875927
  O  -0.160728  -3.588268  -1.398754
  H   0.742892  -1.690029   1.750079
  H  -0.100404  -3.148897   1.280374
  H  -0.691506  -4.295448  -1.024894
26

  C   0.000000   0.000000   0.000000
  S   1.830000   0.000000   0.000000
  S   2.150691   2.024761   0.000000
  C   1.885475   2.356611   1.780011
  H  -0.354869   0.605780  -0.833785
  H  -0.354869   0.605780   0.833785
  H   2.535203   1.704129   2.363296
  H   0.913184   1.961032   2.073725
  C   2.076860   3.861807   2.043366
  H   1.918890   4.059466   3.103590
  N   1.202773   4.621072   1.137612
  C   3.452808   4.294264   1.503599
  O   4.140772   3.519596   0.981877
  O   3.873418   5.655475   1.626438
  H   0.597336   4.132998   0.493151
  H   1.196543   5.630526   1.170225
  H   4.747671   5.748465   1.240906
  C  -0.501375  -1.456099  -0.000000
  H  -1.591375  -1.456099  -0.000000
  N   0.115273  -2.174589   1.124463
  C   0.144637  -2.208803  -1.178009
  O   0.892290  -1.661514  -1.875927
  O  -0.160728  -3.588268  -1.398754
  H   0.742892  -1.690029   1.750079
  H  -0.100404  -3.148897   1.280374
  H  -0.691506  -4.295448  -1.024894
26

  C   0.000000   0.000000   0.000000
  S   1.830000   0.000000   0.000000
  S   2.150691   2.024761   0.000000
  C   2.195474   2.307512   1.807470
  H  -0.354869   0.605780  -0.833785
  H  -0.354869   0.605780   0.833785
  H   2.934081   1.640953   2.252735
  H   1.287040   1.901819   2.252735
  C   2.432724   3.805443   2.074888
  H   2.459399   3.973857   3.151468
  N   1.418028   4.586979   1.353435
  C   3.696720   4.255632   1.319080
  O   4.283189   3.497039   0.666248
  O   4.135360   5.613988   1.404890
  H   0.709887   4.115172   0.809345
  H   1.419854   5.595157   1.414042
  H   4.930751   5.719467   0.877798
  C  -0.501375  -1.456099  -0.000000
  H  -1.591375  -1.456099  -0.000000
  N   0.115273  -2.174589   1.124463
  C   0.144637  -2.208803  -1.178009
  O   0.892290  -1.661514  -1.875927
  O  -0.160728  -3.588268  -1.398754
  H   0.742892  -1.690029   1.750079
  H  -0.100404  -3.148897   1.280374
  H  -0.691506  -4.295448  -1.024894
26

  C   0.000000   0.000000   0.000000
  S   1.830000   0.000000   0.000000
  S   2.150691   2.024761   0.000000
  C   2.505474   2.258412   1.780011
  H  -0.354869   0.605780  -0.833785
  H  -0.354869   0.605780   0.833785
  H   3.307937   1.581740   2.073725
  H   1.685919   1.838643   2.363296
  C   2.788589   3.749080   2.043366
  H   2.999908   3.888249   3.103590
  N   1.667029   4.547541   1.528134
  C   3.905279   4.222600   1.094481
  O   4.369308   3.483399   0.330375
  O   4.355325   5.579149   1.140655
  H   0.874958   4.089027   1.100947
  H   1.681589   5.553703   1.614894
  H   5.048773   5.700775   0.488019
  C  -0.501375  -1.456099  -0.000000
  H  -1.591375  -1.456099  -0.000000
  N   0.115273  -2.174589   1.124463
  C   0.144637  -2.208803  -1.178009
  O   0.892290  -1.661514  -1.875927
  O  -0.160728  -3.588268  -1.398754
  H   0.742892  -1.690029   1.750079
  H  -0.100404  -3.148897   1.280374
  H  -0.691506  -4.295448  -1.024894
26

  C   0.000000   0.000000   0.000000
  S   1.830000   0.000000   0.000000
  S   2.150691   2.024761   0.000000
  C   2.806055   2.210805   1.698466
  H  -0.354869   0.605780  -0.833785
  H  -0.354869   0.605780   0.833785
  H   3.645411   1.528289   1.831707
  H   2.097699   1.773423   2.402049
  C   3.133641   3.694429   1.949757
  H   3.523994   3.805242   2.961411
  N   1.942209   4.503956   1.656401
  C   4.072149   4.196170   0.836627
  O   4.396514   3.479090  -0.015537
  O   4.526628   5.552017   0.841762
  H   1.087534   4.055359   1.359098
  H   1.973796   5.507422   1.766679
  H   5.098151   5.692954   0.083411
  C  -0.501375  -1.456099  -0.000000
  H  -1.591375  -1.456099  -0.000000
  N   0.115273  -2.174589   1.124463
  C   0.144637  -2.208803  -1.178009
  O   0.892290  -1.661514  -1.875927
  O  -0.160728  -3.588268  -1.398754
  H   0.742892  -1.690029   1.750079
  H  -0.100404  -3.148897   1.280374
  H  -0.691506  -4.295448  -1.024894
26

  C   0.000000   0.000000   0.000000
  S   1.830000   0.000000   0.000000
  S   2.150691   2.024761   0.000000
  C   3.088083   2.166136   1.565315
  H  -0.354869   0.605780  -0.833785
  H  -0.354869   0.605780   0.833785
  H   3.936250   1.482225   1.534033
  H   2.509871   1.708141   2.367818
  C   3.457396   3.643151   1.796906
  H   4.015733   3.727358   2.729251
  N   2.235208   4.457550   1.734340
  C   4.192259   4.177146   0.553352
  O   4.363979   3.484243  -0.360976
  O   4.644066   5.533417   0.517293
  H   1.341156   4.015189   1.575952
  H   2.287596   5.457720   1.864783
  H   5.077385   5.696243  -0.323731
  C  -0.501375  -1.456099  -0.000000
  H  -1.591375  -1.456099  -0.000000
  N   0.115273  -2.174589   1.124463
  C   0.144637  -2.208803  -1.178009
  O   0.892290  -1.661514  -1.875927
  O  -0.160728  -3.588268  -1.398754
  H   0.742892  -1.690029   1.750079
  H  -0.100404  -3.148897   1.280374
  H  -0.691506  -4.295448  -1.024894
26

  C   0.000000   0.000000   0.000000
  S   1.830000   0.000000   0.000000
  S   2.150691   2.024761   0.000000
  C   3.342990   2.125763   1.384602
  H  -0.354869   0.605780  -0.833785
  H  -0.354869   0.605780   0.833785
  H   4.171616   1.444947   1.189748
  H   2.909910   1.644782   2.261642
  C   3.750016   3.596804   1.589456
  H   4.460183   3.656964   2.414164
  N   2.537124   4.409731   1.759582
  C   4.261960   4.166107   0.253264
  O   4.272692   3.498702  -0.695448
  O   4.704070   5.523913   0.177106
  H   1.628118   3.969738   1.744923
  H   2.613454   5.406109   1.906227
  H   4.987105   5.710542  -0.721037
  C  -0.501375  -1.456099  -0.000000
  H  -1.591375  -1.456099  -0.000000
  N   0.115273  -2.174589   1.124463
  C   0.144637  -2.208803  -1.178009
  O   0.892290  -1.661514  -1.875927
  O  -0.160728  -3.588268  -1.398754
  H   0.742892  -1.690029   1.750079
  H  -0.100404  -3.148897   1.280374
  H  -0.691506  -4.295448  -1.024894
26

  C   0.000000   0.000000   0.000000
  S   1.830000   0.000000   0.000000
  S   2.150691   2.024761   0.000000
  C   3.563030   2.090912   1.161819
  H  -0.354869   0.605780  -0.833785
  H  -0.354869   0.605780   0.833785
  H   4.344358   1.417587   0.809313
  H   3.285660   1.585268   2.086746
  C   4.002612   3.556797   1.333712
  H   4.843841   3.596198   2.025724
  N   2.838781   4.361953   1.731359
  C   4.279134   4.163387  -0.054519
  O   4.125426   3.522026  -1.008788
  O   4.704817   5.523795  -0.168463
  H   1.939701   3.920388   1.860875
  H   2.941471   5.354157   1.889752
  H   4.830055   5.735416  -1.096434
  C  -0.501375  -1.456099  -0.000000
  H  -1.591375  -1.456099  -0.000000
  N   0.115273  -2.174589   1.124463
  C   0.144637  -2.208803  -1.178009
  O   0.892290  -1.661514  -1.875927
  O  -0.160728  -3.588268  -1.398754
  H   0.742892  -1.690029   1.750079
  H  -0.100404  -3.148897   1.280374
  H  -0.691506  -4.295448  -1.024894
26

  C   0.000000   0.000000   0.000000
  S   1.830000   0.000000   0.000000
  S   2.150691   2.024761   0.000000
  C   3.741518   2.062642   0.903735
  H  -0.354869   0.605780  -0.833785
  H  -0.354869   0.605780   0.833785
  H   4.449227   1.400977   0.404288
  H   3.625707   1.531410   1.848446
  C   4.207507   3.524345   1.037444
  H   5.155048   3.546908   1.575733
  N   3.131015   4.315668   1.650530
  C   4.243259   4.169069  -0.360646
  O   3.926657   3.553508  -1.291477
  O   4.646284   5.533065  -0.508912
  H   2.266437   3.868639   1.920285
  H   3.261678   5.303441   1.815857
  H   4.611006   5.770110  -1.438517
  C  -0.501375  -1.456099  -0.000000
  H  -1.591375  -1.456099  -0.000000
  N   0.115273  -2.174589   1.124463
  C   0.144637  -2.208803  -1.178009
  O   0.892290  -1.661514  -1.875927
  O  -0.160728  -3.588268  -1.398754
  H   0.742892  -1.690029   1.750079
  H  -0.100404  -3.148897   1.280374
  H  -0.691506  -4.295448  -1.024894
26

  C   0.000000   0.000000   0.000000
  S   1.830000   0.000000   0.000000
  S   2.150691   2.024761   0.000000
  C   3.873030   2.041813   0.618191
  H  -0.354869   0.605780  -0.833785
  H  -0.354869   0.605780   0.833785
  H   4.483037   1.395622  -0.013022
  H   3.919716   1.484844   1.553982
  C   4.358476   3.500434   0.709653
  H   5.384349   3.510590   1.077865
  N   3.404947   4.272281   1.519551
  C   4.155425   4.182980  -0.655814
  O   3.682423   3.592191  -1.534925
  O   4.530250   5.551443  -0.833899
  H   2.598398   3.816061   1.921348
  H   3.564347   5.255503   1.686788
  H   4.336614   5.813570  -1.736891
  C  -0.501375  -1.456099  -0.000000
  H  -1.591375  -1.456099  -0.000000
  N   0.115273  -2.174589   1.124463
  C   0.144637  -2.208803  -1.178009
  O   0.892290  -1.661514  -1.875927
  O  -0.160728  -3.588268  -1.398754
  H   0.742892  -1.690029   1.750079
  H  -0.100404  -3.148897   1.280374
  H  -0.691506  -4.295448  -1.024894
26

  C   0.000000   0.000000   0.000000
  S   1.830000   0.000000   0.000000
  S   2.150691   2.024761   0.000000
  C   3.953570   2.029056   0.313864
  H  -0.354869   0.605780  -0.833785
  H  -0.354869   0.605780   0.833785
  H   4.444760   1.401685  -0.429935
  H   4.158754   1.446984   1.212301
  C   4.450933   3.485790   0.360300
  H   5.524778   3.488348   0.547246
  N   3.652253   4.233112   1.342401
  C   4.018301   4.204699  -0.931057
  O   3.400146   3.636899  -1.731735
  O   4.360240   5.578370  -1.133548
  H   2.925498   3.764253   1.864032
  H   3.840281   5.211799   1.506467
  H   4.015217   5.864474  -1.982490
  C  -0.501375  -1.456099  -0.000000
  H  -1.591375  -1.456099  -0.000000
  N   0.115273  -2.174589   1.124463
  C   0.144637  -2.208803  -1.178009
  O   0.892290  -1.661514  -1.875927
  O  -0.160728  -3.588268  -1.398754
  H   0.742892  -1.690029   1.750079
  H  -0.100404  -3.148897   1.280374
  H  -0.691506  -4.295448  -1.024894
26

  C   0.000000   0.000000   0.000000
  S   1.830000   0.000000   0.000000
  S   2.150691   2.024761   0.000000
  C   3.980691   2.024761  -0.000000
  H  -0.354869   0.605780  -0.833785
  H  -0.354869   0.605780   0.833785
  H   4.335560   1.418980  -0.833786
  H   4.335560   1.418980   0.833785
  C   4.482067   3.480859  -0.000001
  H   5.572066   3.480859  -0.000001
  N   3.865418   4.199350   1.124462
  C   3.836054   4.233564  -1.178009
  O   3.088402   3.686275  -1.875928
  O   4.141420   5.613028  -1.398755
  H   3.237799   3.714790   1.750078
  H   4.081096   5.173658   1.280373
  H   3.656579   5.921277  -2.167853
  C  -0.501375  -1.456099  -0.000000
  H  -1.591375  -1.456099  -0.000000
  N   0.115273  -2.174589   1.124463
  C   0.144637  -2.208803  -1.178009
  O   0.892290  -1.661514  -1.875927
  O  -0.160728  -3.588268  -1.398754
  H   0.742892  -1.690029   1.750079
  H  -0.100404  -3.148897   1.280374
  H  -0.691506  -4.295448  -1.024894
