26
Coordinates from ORCA-job mol
  C   -0.09213193459276     -0.20796791825642      0.03764596842711
  S   1.73171665470058      0.02236475713834     -0.07961139911464
  S   1.89674982188219      2.12212266478608     -0.31497314500535
  C   0.61031281566814      2.74390000240803      0.84974841078834
  H   -0.58466613842163      0.23448322539578     -0.82787013212464
  H   -0.47260418319152      0.25741489887794      0.94170510881256
  H   0.65202192701486      2.18854595799871      1.78463411266482
  H   -0.37695408874393      2.64442145276438      0.40644012782860
  C   0.87163768810103      4.24601558347379      1.16015240849152
  H   0.05514402885393      4.58035255186399      1.80743768273042
  N   0.87114966836416      5.06765735518469     -0.03617702299207
  C   2.17715034176283      4.35328127863144      2.03405907912272
  O   2.46859460505455      3.61857006176731      2.94263471963982
  O   2.95023979679942      5.42067617680090      1.65595125033820
  H   1.59223851234522      4.81367766646500     -0.69987199493609
  H   0.92352236719988      6.05708107972069      0.17322653820081
  H   3.75605432778992      5.47097578023692      2.21107676446142
  C   -0.42291368975998     -1.73112967080023      0.05574865076467
  H   -1.49893854936025     -1.82070285160155      0.22554873659788
  N   0.26362907725741     -2.54843664732372      1.05258587941367
  C   -0.17066549393116     -2.34887259633902     -1.37865113147414
  O   -0.38778110909672     -1.75425959806199     -2.39962216729651
  O   0.27263441767062     -3.63425080884938     -1.33385371548571
  H   1.22674489864557     -2.27718878118262      1.21126997928690
  H   -0.23169529955885     -2.61876301279704      1.93200689938002
  H   0.40577153754646     -3.86967960830202     -0.38524660852031
