26

  C   0.000000   0.000000   0.000000
  S   1.830000   0.000000   0.000000
  S   2.150691   2.024761   0.000000
  C   1.302866   2.448887  -1.565315
  H  -0.354869   0.605780  -0.833785
  H  -0.354869   0.605780   0.833785
  H   0.284871   2.060547  -1.534033
  H   1.711249   1.834631  -2.367818
  C   1.408048   3.967737  -1.796906
  H   0.903061   4.220357  -2.729251
  N   2.822085   4.364598  -1.734340
  C   0.874169   4.702680  -0.553354
  O   0.496734   4.096753   0.360976
  O   0.863584   6.132188  -0.517293
  H   3.535681   3.667611  -1.575953
  H   3.081331   5.332005  -1.864782
  H   0.501791   6.420948   0.323732
  C  -0.501375  -1.456099  -0.000000
  H  -1.591375  -1.456099  -0.000000
  N   0.115273  -2.174589   1.124463
  C   0.144637  -2.208803  -1.178009
  O   0.892290  -1.661514  -1.875927
  O  -0.160728  -3.588268  -1.398754
  H   0.742892  -1.690029   1.750079
  H  -0.100404  -3.148897   1.280374
  H  -0.691506  -4.295448  -1.024894
