26
Coordinates from ORCA-job mol
  C   0.44068905403963     -0.35857248869388     -1.43936568106043
  S   2.27527430260827     -0.23764366648980     -1.32294282149124
  S   2.45405444250905      1.87943037306199     -1.59755790445995
  C   4.13516963532269      2.08627476020503     -0.87229028726935
  H   0.18022075482807     -1.01804079728242     -2.26517864059961
  H   0.01295325305895      0.62236785967955     -1.63274059179354
  H   4.73648594862665      2.67084143668152     -1.56691775256323
  H   4.60728954043489      1.11512500883311     -0.74242974805796
  C   4.09008663234172      2.81630071812053      0.49758640386075
  H   5.11326844171025      2.88882694244773      0.87762445920170
  N   3.28135513502784      2.10771010987822      1.47787258352402
  C   3.60272534007521      4.28896880184877      0.25267971975991
  O   3.51966055404554      4.84032389612156     -0.81473104642551
  O   3.26609104387237      4.89939852787775      1.43554385834645
  H   2.32398816014563      1.99871684222349      1.16588255848455
  H   3.30862860928799      2.55721794318196      2.38591296275742
  H   2.96259284830854      5.81623950086716      1.27229385287358
  C   -0.16959340763499     -0.91471821911830     -0.12414290792879
  H   -1.25255474670472     -0.98279501737423     -0.25356840761506
  N   0.11467768794747     -0.03873230318288      1.00255692541060
  C   0.38231723686186     -2.38373493483127      0.07410320117309
  O   1.19276797179266     -2.89079636720798     -0.65249525864632
  O   -0.10011981352578     -3.06427506746509      1.16859544475626
  H   1.10465714193128      0.08688211756375      1.16879186897572
  H   -0.38616437866169     -0.25578838361696      1.85240084722733
  H   -0.78485638824944     -2.55561759332933      1.64268536155961
