12

  N  -0.373062  -0.519972  -2.813659
  C  -1.334062   0.069028  -1.826659
  C  -0.605062   0.928028  -0.818659
  O  -1.127062   1.906028  -0.323659
  C  -1.946062  -1.122972  -1.064659
  S  -0.794062  -1.689972   0.251341
  N   0.565938   0.496028  -0.441659
  C   1.310938   1.191028   0.620341
  C   2.818938   1.108028   0.344341
  O   3.313938   0.071028  -0.060659
  C   0.915938   0.371028   1.864341
  S  -0.816062  -0.238972   1.692341
12

  N  -0.769206  -1.828087  -2.261361
  C  -0.815206  -1.998087  -0.813361
  C  -1.176206  -0.719087  -0.108361
  O  -2.002206  -0.695087   0.803639
  C   0.559794  -2.411087  -0.260361
  S   1.801794  -1.044087  -0.165361
  N  -0.440206   0.308913  -0.457361
  C  -0.551206   1.564913   0.215639
  C  -0.755206   2.747913  -0.733361
  O  -1.806206   3.389913  -0.713361
  C   0.740794   1.680913   1.011639
  S   1.374794   0.038913   1.565639
12

  N  -0.372173   1.843865  -2.182469
  C   0.229827   0.469865  -2.210469
  C  -0.615173  -0.507135  -1.381469
  O  -0.814173  -1.645135  -1.758469
  C   1.653827   0.524865  -1.643469
  S   1.629827   1.239865   0.022531
  N  -1.047173  -0.093135  -0.224469
  C  -0.978173  -1.001135   0.952531
  C  -2.373173  -1.107135   1.589531
  O  -2.989173  -0.095135   1.858531
  C   0.005827  -0.430135   1.973531
  S   1.665827  -0.368135   1.248531
12

  N   1.559222   0.189419   2.464166
  C   1.965222  -0.504581   1.202166
  C   1.513222   0.344419   0.041166
  O   2.237222   0.700419  -0.868834
  C   1.261222  -1.875581   0.995166
  S  -0.537778  -1.942581   0.701166
  N   0.252222   0.610419   0.195166
  C  -0.545778   1.396419  -0.749834
  C  -1.050778   2.690419  -0.104834
  O  -1.882778   3.368419  -0.674834
  C  -1.598778   0.377419  -1.134834
  S  -1.008778  -1.346581  -1.185834
12

  N   2.765953  -0.738294  -0.422871
  C   1.578953  -1.153294  -1.235871
  C   0.635953   0.019706  -1.349871
  O   0.192953   0.442706  -2.399871
  C   0.746953  -2.276294  -0.560871
  S  -0.132047  -1.935294   1.002129
  N   0.400953   0.469706  -0.155871
  C  -0.490047   1.591706   0.145129
  C   0.294953   2.782706   0.686129
  O  -0.059047   3.910706   0.406129
  C  -1.456047   0.919706   1.096129
  S  -1.809047  -0.825294   0.702129
12

  N  -0.947516   2.214158  -0.791512
  C   0.449484   2.037158  -0.381512
  C   1.031484   0.716158  -0.720512
  O   2.256484   0.511158  -0.635512
  C   0.560484   2.178158   1.144488
  S  -0.179516   0.813158   2.245488
  N   0.217484  -0.165842  -1.116512
  C   0.577484  -1.519842  -0.994512
  C  -0.209516  -2.400842  -1.933512
  O  -1.082516  -1.915842  -2.659512
  C   0.271484  -1.814842   0.481488
  S  -1.091516  -0.705842   1.132488
12

  N   1.856008  -0.832096   2.563331
  C   1.875008  -0.954096   1.069331
  C   1.438008   0.314904   0.373331
  O   2.194008   1.045904  -0.238669
  C   0.904008  -2.063096   0.551331
  S   0.271008  -1.857096  -1.146669
  N   0.160008   0.477904   0.541331
  C  -0.612992   1.593904  -0.021669
  C  -1.672992   2.071904   0.971331
  O  -2.142992   3.187904   0.873331
  C  -1.124992   0.959904  -1.305669
  S  -1.478992  -0.821096  -1.139669
12

  N   2.462995   1.374576  -1.350902
  C   1.057995   1.136576  -1.693902
  C   0.166995   1.411576  -0.515902
  O  -0.788005   2.185576  -0.576902
  C   0.782995  -0.334424  -2.070902
  S  -0.929005  -0.906424  -1.653902
  N   0.432995   0.635576   0.507098
  C  -0.379005   0.615576   1.685098
  C   0.457995   0.285576   2.925098
  O   1.314995  -0.593424   2.881098
  C  -1.422005  -0.473424   1.421098
  S  -0.848005  -1.755424   0.217098
12

  N   0.094961  -1.009267  -3.049124
  C  -0.687039  -1.264267  -1.843124
  C  -0.973039   0.003733  -1.088124
  O  -2.104039   0.483733  -1.004124
  C   0.073961  -2.174267  -0.865124
  S  -0.402039  -1.921267   0.900876
  N   0.079961   0.461733  -0.460124
  C   0.041961   1.593733   0.411876
  C   1.098961   2.628733   0.035876
  O   0.813961   3.823733  -0.042124
  C   0.277961   1.015733   1.797876
  S   1.031961  -0.664267   1.734876
12

  N  -1.367675   2.620768  -0.890400
  C  -0.114675   1.973768  -0.733400
  C  -0.337675   0.528768  -0.876400
  O  -1.477675   0.064768  -0.833400
  C   0.468325   2.167768   0.687600
  S  -0.152675   0.945768   1.951600
  N   0.753325  -0.169232  -1.033400
  C   0.816325  -1.587232  -0.882400
  C  -0.035675  -2.382232  -1.911400
  O  -0.827675  -1.825232  -2.681400
  C   0.383325  -1.878232   0.570600
  S   1.129325  -0.697232   1.820600
12

  N  -1.244261   2.577938  -1.047194
  C  -0.015261   1.988938  -0.685194
  C  -0.131261   0.546938  -0.942194
  O  -1.228261   0.051938  -1.257194
  C   0.251739   2.134938   0.826806
  S  -0.631261   0.885938   1.885806
  N   0.978739  -0.122062  -0.794194
  C   1.036739  -1.536062  -0.692194
  C   0.430739  -2.298062  -1.918194
  O  -0.004261  -1.716062  -2.923194
  C   0.278739  -1.884062   0.619806
  S   0.668739  -0.736062   2.049806
