12

  N   1.095559  -1.041816   2.547416
  C   0.230559  -1.656816   1.543416
  C   0.654559  -1.304816   0.121416
  O   0.700559  -2.174816  -0.751584
  C  -1.230441  -1.201816   1.728416
  S  -1.608441   0.507184   1.123416
  N   0.969559  -0.028816  -0.101584
  C   0.948559   0.540184  -1.446584
  C   2.088559   1.543184  -1.708584
  O   2.638559   2.106184  -0.761584
  C  -0.404441   1.219184  -1.645584
  S  -1.816441   0.317184  -0.909584
12

  N   1.428618   0.011734   2.587298
  C   1.736618  -0.683266   1.342298
  C   1.461618   0.102734   0.063298
  O   2.102618  -0.142266  -0.971702
  C   0.886618  -1.954266   1.269298
  S  -0.877382  -1.577266   0.996298
  N   0.474618   0.998734   0.102298
  C  -0.172382   1.372734  -1.155702
  C  -0.623382   2.797734  -1.317702
  O  -1.136382   3.425734  -0.397702
  C  -1.379382   0.467734  -1.424702
  S  -1.151382  -1.290266  -1.029702
12

  N  -2.554352   1.137239  -0.842004
  C  -1.963352   1.247239   0.486996
  C  -0.454352   1.382239   0.407996
  O   0.188648   2.142239   1.123996
  C  -2.138352   0.009239   1.361996
  S  -1.416352  -1.507761   0.654996
  N   0.004648   0.615239  -0.586004
  C   1.392648   0.375239  -0.859004
  C   2.121648   0.714239  -2.151004
  O   3.354648   0.581239  -2.175004
  C   1.507648  -1.108761  -0.528004
  S   0.587648  -1.597761   0.972996
12

  N  -0.820929  -0.845144  -2.875117
  C  -1.622929  -0.420144  -1.732117
  C  -1.007929   0.675856  -0.864117
  O  -1.734929   1.456856  -0.250117
  C  -1.902929  -1.626144  -0.834117
  S  -0.511929  -2.060144   0.239883
  N   0.321071   0.729856  -0.805117
  C   0.991071   1.371856   0.324883
  C   2.196071   2.241856  -0.018117
  O   3.048071   2.504856   0.835883
  C   1.408071   0.292856   1.322883
  S   0.052071  -0.816144   1.749883
12

  N   0.291742   1.676367   2.165407
  C   1.229742   1.571367   1.065407
  C   0.525742   1.409367  -0.236593
  O   1.060742   1.731367  -1.275593
  C   2.112742   0.299367   1.208407
  S   1.250742  -1.370633   1.218407
  N  -0.665258   0.837367  -0.162593
  C  -1.268258   0.143367  -1.277593
  C  -2.723258   0.584367  -1.357593
  O  -3.382258   0.563367  -0.357593
  C  -1.190258  -1.334633  -0.944593
  S   0.562742  -1.873633  -0.700593
12

  N  -0.735198  -0.710216  -2.923230
  C  -1.604198  -0.288216  -1.826230
  C  -0.973198   0.742784  -0.897230
  O  -1.671198   1.583784  -0.322230
  C  -1.965198  -1.505216  -0.972230
  S  -0.720198  -1.848216   0.318770
  N   0.345802   0.656784  -0.741230
  C   1.037802   1.305784   0.369770
  C   2.315802   2.019784  -0.047230
  O   3.380802   1.794784   0.528770
  C   1.371802   0.266784   1.437770
  S  -0.031198  -0.766216   1.903770
12

  N   2.822721   0.319014  -1.497927
  C   1.760721   1.263014  -1.167927
  C   1.098721   0.957014   0.168073
  O   1.025721   1.817014   1.045073
  C   0.708721   1.284014  -2.286927
  S  -1.010279   1.089014  -1.748927
  N   0.615721  -0.271986   0.317073
  C  -0.044279  -0.691986   1.547073
  C   0.745721  -1.789986   2.251073
  O   0.168721  -2.714986   2.821073
  C  -1.467279  -1.172986   1.255073
  S  -2.137279  -0.604986  -0.325927
12

  N  -0.599528   2.059631   2.517630
  C  -1.324528   1.177631   1.611630
  C  -0.652528  -0.140369   1.384630
  O  -1.164528  -1.211369   1.716630
  C  -1.443528   1.793631   0.215630
  S  -1.694528   0.555631  -1.125370
  N   0.525472  -0.023369   0.796630
  C   1.257472  -1.176369   0.359630
  C   2.758472  -0.921369   0.275630
  O   3.382472  -1.195369  -0.751370
  C   0.677472  -1.496369  -1.005370
  S   0.143472   0.041631  -1.868370
12

  N  -1.502158  -1.001811   1.842962
  C  -2.053158  -0.723811   0.505962
  C  -0.994158  -0.951811  -0.574038
  O  -1.279158  -1.051811  -1.780038
  C  -2.428158   0.759189   0.421962
  S  -1.053158   1.838189  -0.149038
  N   0.237842  -1.043811  -0.097038
  C   1.378842  -0.567811  -0.834038
  C   2.399842  -1.675811  -0.996038
  O   2.870842  -2.239811  -0.019038
  C   1.956842   0.641189  -0.072038
  S   0.713842   1.641189   0.863962
12

  N  -2.504860   1.724004  -1.355453
  C  -1.117860   1.843004  -0.839453
  C  -0.305860   0.602004  -1.134453
  O  -0.810860  -0.387996  -1.688453
  C  -1.175860   1.972004   0.690547
  S  -1.467860   0.318004   1.453547
  N   0.979140   0.649004  -0.751453
  C   1.731140  -0.540996  -0.398453
  C   2.163140  -1.362996  -1.592453
  O   2.518140  -2.522996  -1.456453
  C   0.978140  -1.375996   0.653547
  S   0.431140  -0.327996   2.017547
12

  N  -0.643143   1.087009   2.907584
  C  -0.246143   0.809009   1.531584
  C   0.441857  -0.551991   1.440584
  O   1.340857  -0.837991   2.238584
  C   0.705857   1.898009   1.040584
  S   1.266857   1.685009  -0.675416
  N   0.026857  -1.412991   0.509584
  C  -1.066143  -1.185991  -0.447416
  C  -1.530143  -2.567991  -0.888416
  O  -0.699143  -3.400991  -1.243416
  C  -0.579143  -0.468991  -1.711416
  S  -0.466143   1.347009  -1.675416
12

  N  -2.169353  -2.583192   0.078907
  C  -1.474353  -1.608192  -0.752093
  C  -0.110353  -1.239192  -0.234093
  O   0.400647  -1.782192   0.743907
  C  -2.228353  -0.280192  -0.741093
  S  -1.873353   0.656808   0.809907
  N   0.447647  -0.275192  -0.954093
  C   1.659647   0.406808  -0.583093
  C   3.016647  -0.284192  -0.417093
  O   4.047647   0.314808  -0.735093
  C   1.254647   1.205808   0.647907
  S  -0.387353   1.997808   0.346907
12

  N   2.983871   1.072736  -0.780516
  C   2.267871   0.139736   0.109484
  C   1.022871  -0.435264  -0.553516
  O   0.647871  -0.011264  -1.601516
  C   1.859871   0.886736   1.402484
  S   0.381871   1.907736   1.246484
  N   0.379871  -1.420264   0.046484
  C  -1.016129  -1.682264  -0.275516
  C  -1.259129  -2.237264  -1.717516
  O  -2.379129  -2.199264  -2.216516
  C  -1.848129  -0.379264  -0.031516
  S  -1.372129   0.735736   1.378484
12

  N   1.531027   2.921882  -0.600802
  C   0.811027   1.640882  -0.560802
  C   0.773027   1.271882   0.925198
  O   1.669027   1.704882   1.659198
  C   1.601027   0.584882  -1.377802
  S   0.630027  -0.879118  -1.899802
  N  -0.235973   0.522882   1.410198
  C  -1.318973  -0.040118   0.613198
  C  -2.696973   0.210882   1.233198
  O  -3.638973  -0.478118   0.873198
  C  -1.114973  -1.550118   0.455198
  S   0.516027  -2.031118  -0.199802
