26

  N  -2.345483  -0.247640   3.482699
  C  -1.467483  -0.186640   2.314699
  C  -0.286483   0.773360   2.434699
  O   0.865517   0.397360   2.204699
  C  -2.293483   0.211360   1.088699
  S  -1.313483   0.705360  -0.368301
  N   3.407517  -1.065640  -1.425301
  C   2.041517  -0.605640  -1.656301
  C   1.986517   0.918360  -1.705301
  O   1.296517   1.504360  -2.541301
  C   1.109517  -1.126640  -0.565301
  S  -0.637483  -1.074640  -1.078301
  O  -0.486492   2.009413   2.784226
  O   2.675052   1.621284  -0.855702
  H  -2.159105   0.327942   4.278921
  H  -3.140742  -0.853901   3.479290
  H   3.676616  -1.237166  -2.373017
  H   4.059831  -1.223681  -0.684012
  H  -0.402845  -1.189305   2.463390
  H   1.813495  -0.491007  -3.103977
  H  -2.937167   1.522658   1.253222
  H  -2.550918  -1.152995   0.605831
  H   2.439080  -1.395036   0.001378
  H   1.373826  -2.338016  -1.354990
  H  -0.634190   2.922191   3.042338
  H   3.183508   2.140366  -0.228307

26

  N  -2.345483  -0.247640   3.482699
  C  -1.467483  -0.186640   2.314699
  C  -0.286483   0.773360   2.434699
  O   0.865517   0.397360   2.204699
  C  -2.293483   0.211360   1.088699
  S  -1.313483   0.705360  -0.368301
  N   3.407517  -1.065640  -1.425301
  C   2.041517  -0.605640  -1.656301
  C   1.986517   0.918360  -1.705301
  O   1.296517   1.504360  -2.541301
  C   1.109517  -1.126640  -0.565301
  S  -0.637483  -1.074640  -1.078301
  O  -0.486492   2.009413   2.784226
  O   2.675052   1.621284  -0.855702
  H  -2.159105   0.327942   4.278921
  H  -3.140742  -0.853901   3.479290
  H   3.676616  -1.237166  -2.373017
  H   4.059831  -1.223681  -0.684012
  H  -0.402845  -1.189305   2.463390
  H   1.813495  -0.491007  -3.103977
  H  -2.937167   1.522658   1.253222
  H  -2.550918  -1.152995   0.605831
  H   2.439080  -1.395036   0.001378
  H   1.373826  -2.338016  -1.354990
  H  -0.634190   2.922191   3.042338
  H   3.183508   2.140366  -0.228307
