10

  C   0.000000   0.000000   0.000000
  S   1.830000   0.000000   0.000000
  S   2.150691   2.024761   0.000000
  C   2.195474   2.307512  -1.807470
  F  -0.354869  -1.030615  -0.000000
  F  -0.354869   0.605780  -0.833785
  F  -0.354869   0.605780   0.833785
  F   2.363397   3.367736  -1.996746
  F   1.287040   1.901819  -2.252735
  F   2.934080   1.640953  -2.252735
10

  C  -0.092751  -0.080590  -0.130104
  S   1.790875  -0.013756   0.058485
  S   2.096009   2.053375   0.036492
  C   2.338698   2.380107   1.886472
  F  -0.409349  -1.384787  -0.240173
  F  -0.512097   0.556567  -1.235566
  F  -0.756705   0.432172   0.916135
  F   2.656669   3.684087   1.995151
  F   3.342366   1.650403   2.400329
  F   1.242361   2.146148   2.622465
10

  C  -0.034569   0.015459  -0.000000
  S   1.847704  -0.054709  -0.000000
  S   2.132987   2.079470   0.000000
  C   4.015260   2.009302   0.000000
  F  -0.463467  -1.259391  -0.000000
  F  -0.531610   0.635862  -1.083579
  F  -0.531609   0.635861   1.083579
  F   4.444158   3.284152  -0.000000
  F   4.512300   1.388899  -1.083579
  F   4.512301   1.388900   1.083579
10

  C  -0.027924   0.007403   0.005632
  S   1.855343  -0.053590   0.006442
  S   2.128120   2.077912   0.014871
  C   3.948258   2.026918  -0.469806
  F  -0.455308  -1.250342   0.215766
  F  -0.542795   0.442154  -1.156575
  F  -0.508459   0.797719   0.981645
  F   4.421774   3.277356  -0.325161
  F   4.146628   1.642296  -1.741631
  F   4.658159   1.200273   0.318112
10

  C  -0.026141  -0.003134   0.013189
  S   1.859138  -0.048410   0.014884
  S   2.133713   2.071245   0.031065
  C   3.770820   2.065275  -0.904978
  F  -0.443088  -1.258948   0.254728
  F  -0.550634   0.400652  -1.155235
  F  -0.505691   0.805391   0.974750
  F   4.278551   3.306710  -0.803479
  F   3.641386   1.765062  -2.207463
  F   4.645819   1.194117  -0.372305
10

  C  -0.032981  -0.010450   0.025563
  S   1.855062  -0.039933   0.027216
  S   2.153605   2.060263   0.041166
  C   3.499697   2.116617  -1.281876
  F  -0.434855  -1.279153   0.224437
  F  -0.563813   0.428409  -1.126602
  F  -0.518704   0.756597   1.016768
  F   3.983053   3.372414  -1.281582
  F   3.054322   1.832374  -2.515859
  F   4.504183   1.267406  -1.005066
10

  C  -0.040672  -0.017826   0.042179
  S   1.850470  -0.030910   0.042256
  S   2.178737   2.047986   0.042825
  C   3.146372   2.181172  -1.576600
  F  -0.427084  -1.298266   0.194760
  F  -0.576793   0.457224  -1.092456
  F  -0.534316   0.704601   1.061771
  F   3.573736   3.455126  -1.657362
  F   2.413767   1.907067  -2.666853
  F   4.215545   1.367591  -1.586920
10

  C  -0.045684  -0.029958   0.061135
  S   1.848048  -0.023942   0.057819
  S   2.203596   2.037465   0.035800
  C   2.731930   2.259739  -1.769116
  F  -0.414153  -1.318929   0.188662
  F  -0.587471   0.459292  -1.064073
  F  -0.549602   0.664346   1.094568
  F   3.103256   3.548257  -1.892872
  F   1.752467   2.011430  -2.651152
  F   3.777913   1.479580  -2.087311
10

  C  -0.045895  -0.066297   0.076033
  S   1.849106  -0.020955   0.068070
  S   2.220692   2.031603   0.022149
  C   2.281937   2.367383  -1.842429
  F  -0.378188  -1.357599   0.269669
  F  -0.596435   0.344053  -1.075633
  F  -0.573454   0.666343   1.069570
  F   2.680839   3.648136  -1.968627
  F   1.094521   2.232300  -2.450384
  F   3.162953   1.578760  -2.478103
10

  C  -0.037728  -0.129416   0.077564
  S   1.855879  -0.023089   0.066412
  S   2.224442   2.032070   0.010989
  C   1.823993   2.501740  -1.782396
  F  -0.322776  -1.406110   0.402754
  F  -0.585181   0.127179  -1.119867
  F  -0.608415   0.682388   0.980295
  F   2.317556   3.745409  -1.945593
  F   0.506870   2.540465  -2.033539
  F   2.397210   1.689535  -2.683160
10

  C  -0.033577  -0.180300   0.082963
  S   1.855872  -0.028781   0.066627
  S   2.226338   2.037463  -0.007285
  C   1.400060   2.619111  -1.611091
  F  -0.278674  -1.460920   0.425163
  F  -0.579973   0.038290  -1.122533
  F  -0.633868   0.625452   0.971318
  F   1.876014   3.863167  -1.818344
  F   0.065121   2.698496  -1.505323
  F   1.695072   1.861710  -2.677895
10

  C  -0.035131  -0.237901   0.097167
  S   1.846495  -0.036354   0.071420
  S   2.221134   2.047345  -0.034960
  C   1.040372   2.733927  -1.345002
  F  -0.229359  -1.544897   0.367733
  F  -0.605250   0.030236  -1.086489
  F  -0.651110   0.490648   1.040095
  F   1.444847   4.007623  -1.527395
  F  -0.236337   2.758298  -0.935862
  F   1.096920   2.093982  -2.522542
10

  C  -0.034640  -0.298101   0.112202
  S   1.837400  -0.044245   0.076631
  S   2.207362   2.058858  -0.059250
  C   0.762372   2.838080  -0.994695
  F  -0.172163  -1.632458   0.249672
  F  -0.642497   0.071379  -1.024285
  F  -0.655318   0.300980   1.139245
  F   1.102159   4.140402  -1.077293
  F  -0.404065   2.749620  -0.339555
  F   0.587665   2.364976  -2.237517
10

  C  -0.030093  -0.356767   0.124263
  S   1.832344  -0.050907   0.080626
  S   2.188915   2.069242  -0.075219
  C   0.583601   2.924340  -0.581084
  F  -0.125723  -1.701634   0.092767
  F  -0.686556   0.139397  -0.933542
  F  -0.633349   0.078856   1.240552
  F   0.896286   4.234829  -0.520656
  F  -0.440031   2.694277   0.252774
  F   0.182962   2.647719  -1.831187
10

  C  -0.022397  -0.410367   0.000000
  S   1.831009  -0.057145  -0.000000
  S   2.169308   2.078797  -0.000000
  C   0.515767   2.987465   0.000000
  F  -0.077568  -1.757804  -0.000000
  F  -0.667400   0.037771  -1.087000
  F  -0.667400   0.037771   1.087000
  F   0.879676   4.286003  -0.000000
  F  -0.236150   2.760577   1.087000
  F  -0.236150   2.760577  -1.087000
10

  C  -0.030093  -0.356767  -0.124263
  S   1.832344  -0.050907  -0.080626
  S   2.188915   2.069242   0.075219
  C   0.583601   2.924340   0.581084
  F  -0.125723  -1.701634  -0.092767
  F  -0.633349   0.078856  -1.240552
  F  -0.686556   0.139397   0.933542
  F   0.896286   4.234829   0.520656
  F   0.182962   2.647719   1.831187
  F  -0.440031   2.694277  -0.252774
10

  C  -0.034640  -0.298101  -0.112202
  S   1.837400  -0.044245  -0.076631
  S   2.207362   2.058858   0.059250
  C   0.762372   2.838080   0.994695
  F  -0.172163  -1.632458  -0.249672
  F  -0.655318   0.300980  -1.139245
  F  -0.642497   0.071379   1.024285
  F   1.102159   4.140402   1.077293
  F   0.587665   2.364976   2.237517
  F  -0.404065   2.749620   0.339555
10

  C  -0.035131  -0.237901  -0.097167
  S   1.846495  -0.036354  -0.071420
  S   2.221134   2.047345   0.034960
  C   1.040372   2.733927   1.345002
  F  -0.229359  -1.544897  -0.367733
  F  -0.651110   0.490648  -1.040095
  F  -0.605250   0.030236   1.086489
  F   1.444847   4.007623   1.527395
  F   1.096920   2.093982   2.522542
  F  -0.236337   2.758298   0.935862
10

  C  -0.033577  -0.180300  -0.082963
  S   1.855872  -0.028781  -0.066627
  S   2.226338   2.037463   0.007285
  C   1.400060   2.619111   1.611091
  F  -0.278674  -1.460920  -0.425163
  F  -0.633868   0.625452  -0.971318
  F  -0.579973   0.038290   1.122533
  F   1.876014   3.863167   1.818344
  F   1.695072   1.861710   2.677895
  F   0.065121   2.698496   1.505323
10

  C  -0.037728  -0.129416  -0.077564
  S   1.855879  -0.023089  -0.066412
  S   2.224442   2.032070  -0.010990
  C   1.823993   2.501740   1.782396
  F  -0.322776  -1.406110  -0.402754
  F  -0.608415   0.682388  -0.980295
  F  -0.585181   0.127179   1.119867
  F   2.317556   3.745409   1.945593
  F   2.397210   1.689535   2.683160
  F   0.506870   2.540465   2.033539
10

  C  -0.045895  -0.066297  -0.076033
  S   1.849106  -0.020955  -0.068069
  S   2.220693   2.031602  -0.022149
  C   2.281937   2.367383   1.842429
  F  -0.378189  -1.357599  -0.269670
  F  -0.573454   0.666344  -1.069570
  F  -0.596436   0.344052   1.075633
  F   2.680838   3.648136   1.968627
  F   3.162954   1.578761   2.478103
  F   1.094521   2.232299   2.450384
10

  C  -0.045684  -0.029958  -0.061135
  S   1.848048  -0.023942  -0.057819
  S   2.203596   2.037465  -0.035800
  C   2.731930   2.259739   1.769116
  F  -0.414153  -1.318929  -0.188662
  F  -0.549602   0.664346  -1.094568
  F  -0.587471   0.459292   1.064073
  F   3.103256   3.548257   1.892872
  F   3.777913   1.479580   2.087311
  F   1.752467   2.011430   2.651152
10

  C  -0.040672  -0.017826  -0.042179
  S   1.850470  -0.030910  -0.042256
  S   2.178737   2.047986  -0.042825
  C   3.146372   2.181172   1.576600
  F  -0.427084  -1.298266  -0.194760
  F  -0.534316   0.704601  -1.061771
  F  -0.576793   0.457224   1.092456
  F   3.573736   3.455126   1.657362
  F   4.215545   1.367591   1.586920
  F   2.413767   1.907067   2.666853
10

  C  -0.032981  -0.010450  -0.025563
  S   1.855062  -0.039933  -0.027216
  S   2.153605   2.060263  -0.041166
  C   3.499697   2.116617   1.281876
  F  -0.434855  -1.279153  -0.224437
  F  -0.518704   0.756596  -1.016768
  F  -0.563813   0.428409   1.126602
  F   3.983053   3.372414   1.281582
  F   4.504183   1.267406   1.005066
  F   3.054322   1.832374   2.515859
10

  C  -0.026141  -0.003134  -0.013189
  S   1.859138  -0.048410  -0.014883
  S   2.133713   2.071245  -0.031065
  C   3.770820   2.065275   0.904978
  F  -0.443088  -1.258948  -0.254728
  F  -0.505691   0.805391  -0.974750
  F  -0.550634   0.400652   1.155235
  F   4.278551   3.306711   0.803479
  F   4.645819   1.194117   0.372305
  F   3.641386   1.765062   2.207463
10

  C  -0.027924   0.007403  -0.005632
  S   1.855343  -0.053590  -0.006442
  S   2.128120   2.077912  -0.014870
  C   3.948258   2.026918   0.469806
  F  -0.455308  -1.250342  -0.215766
  F  -0.508459   0.797719  -0.981645
  F  -0.542795   0.442154   1.156575
  F   4.421774   3.277356   0.325161
  F   4.658159   1.200273  -0.318112
  F   4.146628   1.642296   1.741631
10

  C  -0.034569   0.015459  -0.000000
  S   1.847704  -0.054709  -0.000000
  S   2.132987   2.079470   0.000000
  C   4.015260   2.009302   0.000000
  F  -0.463467  -1.259391  -0.000000
  F  -0.531610   0.635862  -1.083579
  F  -0.531609   0.635861   1.083579
  F   4.444158   3.284152  -0.000000
  F   4.512300   1.388899  -1.083579
  F   4.512301   1.388900   1.083579
