10

  C   0.000000   0.000000   0.000000
  S   1.830000   0.000000   0.000000
  S   2.150691   2.024761   0.000000
  C   3.953569   2.029057  -0.313864
  H  -0.354869  -1.030615  -0.000000
  F  -0.354869   0.605780  -0.833785
  F  -0.354869   0.605780   0.833785
  H   4.305598   3.060122  -0.346731
  H   4.158754   1.446984  -1.212301
  H   4.444760   1.401685   0.429935
10

  C   1.304424   0.428550  -0.250890
  S   2.779890   0.446679  -0.613663
  S   1.062182   1.992825  -0.087022
  C   2.683793   1.721113  -0.437032
  H   0.727304  -0.473254  -0.454036
  F   0.026729   1.694556  -1.168526
  F   0.796726   1.661048   1.345980
  H   3.305912   2.320469   0.286598
  H   3.095315   0.056177  -1.587383
  H   3.626213   0.354038   0.123894
10

  C   1.221831  -0.035079  -0.152599
  S   2.217550   0.714085  -0.179008
  S   1.998819   3.013439  -0.643480
  C   2.971900   1.889369  -0.800471
  H   0.922709  -0.746141  -0.930553
  F   0.129674   1.835810  -0.192012
  F   0.217750  -0.028316   0.833180
  H   4.044960   2.032911  -1.144176
  H   2.298871   0.286802  -1.297049
  H   2.779810   1.335081   0.351325
10

  C   0.000000   0.000000   0.000000
  S   1.830000   0.000000   0.000000
  S   2.150691   2.024761   0.000000
  C   3.563029   2.090912  -1.161819
  H  -0.354869  -1.030615   0.000000
  F  -0.354869   0.605780  -0.833785
  F  -0.354869   0.605780   0.833785
  H   3.874161   3.128455  -1.283484
  H   3.285660   1.585268  -2.086747
  H   4.344357   1.417587  -0.809313
10

  C   0.000000   0.000000   0.000000
  S   1.830000   0.000000   0.000000
  S   2.150691   2.024761   0.000000
  C   3.342989   2.125763  -1.384602
  H  -0.354869  -1.030615   0.000000
  F  -0.354869   0.605780  -0.833785
  F  -0.354869   0.605780   0.833785
  H   3.631079   3.166955  -1.529596
  H   2.909909   1.644782  -2.261642
  H   4.171615   1.444947  -1.189748
10

  C   0.000000   0.000000   0.000000
  S   1.830000   0.000000   0.000000
  S   2.150691   2.024761   0.000000
  C   3.088082   2.166136  -1.565315
  H  -0.354869  -1.030615   0.000000
  F  -0.354869   0.605780  -0.833785
  F  -0.354869   0.605780   0.833785
  H   3.349478   3.211556  -1.729233
  H   2.509871   1.708141  -2.367818
  H   3.936249   1.482225  -1.534033
10

  C   0.000000   0.000000   0.000000
  S   1.830000   0.000000   0.000000
  S   2.150691   2.024761   0.000000
  C   2.806054   2.210805  -1.698466
  H  -0.354869  -1.030615   0.000000
  F  -0.354869   0.605780  -0.833785
  F  -0.354869   0.605780   0.833785
  H   3.037916   3.260903  -1.876328
  H   2.097699   1.773423  -2.402050
  H   3.645410   1.528290  -1.831707
10

  C   0.000000   0.000000   0.000000
  S   1.830000   0.000000   0.000000
  S   2.150691   2.024761   0.000000
  C   2.505474   2.258413  -1.780010
  H  -0.354869  -1.030615   0.000000
  F  -0.354869   0.605780  -0.833785
  F  -0.354869   0.605780   0.833785
  H   2.705860   3.313496  -1.966411
  H   1.685918   1.838643  -2.363296
  H   3.307936   1.581740  -2.073725
10

  C   0.000000   0.000000   0.000000
  S   1.830000   0.000000   0.000000
  S   2.150691   2.024761   0.000000
  C   2.195474   2.307512  -1.807470
  H  -0.354869  -1.030615   0.000000
  F  -0.354869   0.605780  -0.833785
  F  -0.354869   0.605780   0.833785
  H   2.363397   3.367736  -1.996746
  H   1.287040   1.901819  -2.252735
  H   2.934080   1.640953  -2.252735
10

  C   0.000000   0.000000   0.000000
  S   1.830000   0.000000   0.000000
  S   2.150691   2.024761   0.000000
  C   1.885474   2.356611  -1.780010
  H  -0.354869  -1.030615   0.000000
  F  -0.354869   0.605780  -0.833785
  F  -0.354869   0.605780   0.833785
  H   2.020935   3.421977  -1.966411
  H   0.913184   1.961032  -2.073725
  H   2.535202   1.704129  -2.363296
10

  C   0.000000   0.000000   0.000000
  S   1.830000   0.000000   0.000000
  S   2.150691   2.024761   0.000000
  C   1.584894   2.404218  -1.698466
  H  -0.354869  -1.030615   0.000000
  F  -0.354869   0.605780  -0.833785
  F  -0.354869   0.605780   0.833785
  H   1.688878   3.474570  -1.876328
  H   0.575710   2.014482  -1.831707
  H   2.123421   1.769349  -2.402050
10

  C   0.000000   0.000000   0.000000
  S   1.830000   0.000000   0.000000
  S   2.150691   2.024761   0.000000
  C   1.302866   2.448887  -1.565315
  H  -0.354869  -1.030615   0.000000
  F  -0.354869   0.605780  -0.833785
  F  -0.354869   0.605780   0.833785
  H   1.377316   3.523916  -1.729233
  H   0.284871   2.060547  -1.534033
  H   1.711249   1.834631  -2.367818
10

  C   0.000000   0.000000   0.000000
  S   1.830000   0.000000   0.000000
  S   2.150691   2.024761   0.000000
  C   1.047959   2.489260  -1.384602
  H  -0.354869  -1.030615   0.000000
  F  -0.354869   0.605780  -0.833785
  F  -0.354869   0.605780   0.833785
  H   1.095715   3.568517  -1.529596
  H   0.049505   2.097825  -1.189748
  H   1.311210   1.897991  -2.261642
10

  C   0.000000   0.000000   0.000000
  S   1.830000   0.000000   0.000000
  S   2.150691   2.024761   0.000000
  C   0.827919   2.524111  -1.161819
  H  -0.354869  -1.030615   0.000000
  F  -0.354869   0.605780  -0.833785
  F  -0.354869   0.605780   0.833785
  H   0.852633   3.607018  -1.283484
  H  -0.123237   2.125185  -0.809313
  H   0.935460   1.957504  -2.086747
10

  C   0.000000   0.000000   0.000000
  S   1.830000   0.000000   0.000000
  S   2.150691   2.024761   0.000000
  C   0.649431   2.552381  -0.903735
  H  -0.354869  -1.030615   0.000000
  F  -0.354869   0.605780  -0.833785
  F  -0.354869   0.605780   0.833785
  H   0.655454   3.638248  -0.998373
  H  -0.228106   2.141794  -0.404288
  H   0.595413   2.011362  -1.848447
10

  C   0.000000   0.000000   0.000000
  S   1.830000   0.000000   0.000000
  S   2.150691   2.024761   0.000000
  C   0.517919   2.573210  -0.618191
  H  -0.354869  -1.030615   0.000000
  F  -0.354869   0.605780  -0.833785
  F  -0.354869   0.605780   0.833785
  H   0.510170   3.661259  -0.682927
  H  -0.261916   2.147149   0.013021
  H   0.301404   2.057928  -1.553983
10

  C   0.000000   0.000000   0.000000
  S   1.830000   0.000000   0.000000
  S   2.150691   2.024761   0.000000
  C   0.437379   2.585967  -0.313864
  H  -0.354869  -1.030615   0.000000
  F  -0.354869   0.605780  -0.833785
  F  -0.354869   0.605780   0.833785
  H   0.421196   3.675351  -0.346731
  H  -0.223640   2.141087   0.429935
  H   0.062366   2.095788  -1.212301
10

  C   0.000000   0.000000   0.000000
  S   1.830000   0.000000   0.000000
  S   2.150691   2.024761   0.000000
  C   0.410257   2.590262   0.000000
  H  -0.354869  -1.030615   0.000000
  F  -0.354869   0.605780  -0.833785
  F  -0.354869   0.605780   0.833785
  H   0.391234   3.680096   0.000000
  H  -0.114440   2.123791   0.833785
  H  -0.114440   2.123791  -0.833785
10

  C   0.000000   0.000000   0.000000
  S   1.830000   0.000000   0.000000
  S   2.150691   2.024761   0.000000
  C   0.437379   2.585967   0.313864
  H  -0.354869  -1.030615   0.000000
  F  -0.354869   0.605780  -0.833785
  F  -0.354869   0.605780   0.833785
  H   0.421196   3.675351   0.346731
  H   0.062366   2.095788   1.212301
  H  -0.223640   2.141087  -0.429935
10

  C   0.000000   0.000000   0.000000
  S   1.830000   0.000000   0.000000
  S   2.150691   2.024761   0.000000
  C   0.517919   2.573210   0.618191
  H  -0.354869  -1.030615   0.000000
  F  -0.354869   0.605780  -0.833785
  F  -0.354869   0.605780   0.833785
  H   0.510170   3.661259   0.682927
  H   0.301404   2.057928   1.553983
  H  -0.261916   2.147149  -0.013021
10

  C   0.000000   0.000000   0.000000
  S   1.830000   0.000000   0.000000
  S   2.150691   2.024761   0.000000
  C   0.649431   2.552381   0.903735
  H  -0.354869  -1.030615   0.000000
  F  -0.354869   0.605780  -0.833785
  F  -0.354869   0.605780   0.833785
  H   0.655454   3.638248   0.998373
  H   0.595413   2.011362   1.848447
  H  -0.228106   2.141794   0.404288
10

  C   0.000000   0.000000   0.000000
  S   1.830000   0.000000   0.000000
  S   2.150691   2.024761   0.000000
  C   0.827919   2.524111   1.161819
  H  -0.354869  -1.030615   0.000000
  F  -0.354869   0.605780  -0.833785
  F  -0.354869   0.605780   0.833785
  H   0.852633   3.607018   1.283484
  H   0.935460   1.957504   2.086747
  H  -0.123237   2.125185   0.809313
