10

  C   0.000000   0.000000   0.000000
  S   1.830000   0.000000   0.000000
  S   2.150691   2.024761   0.000000
  C   3.953569   2.029057  -0.313864
  H  -0.354869  -1.030615  -0.000000
  F  -0.354869   0.605780  -0.833785
  F  -0.354869   0.605780   0.833785
  F   4.305598   3.060122  -0.346731
  H   4.158754   1.446984  -1.212301
  H   4.444760   1.401685   0.429935
10

  C   0.305410   0.060392  -0.084757
  S   1.878098  -0.056193   0.930838
  S   2.519924   1.933577   0.905952
  C   3.537113   1.903638  -0.672048
  H  -0.135577  -0.972223  -0.105878
  F   0.560398   0.477755  -1.348945
  F  -0.578422   0.930336   0.453190
  F   4.220595   3.080705  -0.732072
  H   2.867013   1.797434  -1.545263
  H   4.233936   1.046779  -0.643098
10

  C  -0.018475  -0.032865   0.002905
  S   1.850386  -0.072756  -0.039334
  S   2.183454   2.033281   0.056847
  C   3.786514   2.005080  -0.913098
  H  -0.352644  -1.099325   0.112985
  F  -0.547130   0.501962  -1.122338
  F  -0.467333   0.704508   1.045707
  F   4.244871   3.287007  -0.960094
  H   3.603125   1.617882  -1.932612
  H   4.521105   1.353188  -0.405812
10

  C  -0.023212  -0.036943   0.008961
  S   1.846975  -0.073835  -0.031488
  S   2.195282   2.022134   0.050338
  C   3.611605   2.038984  -1.177815
  H  -0.355647  -1.103996   0.118818
  F  -0.552392   0.497357  -1.116250
  F  -0.472622   0.698842   1.052282
  F   4.049962   3.326062  -1.261286
  H   3.259697   1.680256  -2.162829
  H   4.423642   1.379066  -0.822093
10

  C  -0.026982  -0.042520   0.017588
  S   1.844897  -0.068071  -0.016893
  S   2.202463   2.017884   0.037497
  C   3.394350   2.080129  -1.409408
  H  -0.353390  -1.112044   0.121588
  F  -0.554654   0.493468  -1.107659
  F  -0.484557   0.685359   1.062383
  F   3.815252   3.370716  -1.522999
  H   2.882182   1.751984  -2.332771
  H   4.252114   1.411248  -1.214914
10

  C  -0.028143  -0.049967   0.027564
  S   1.845385  -0.056885   0.001346
  S   2.203532   2.020185   0.022856
  C   3.139644   2.127834  -1.599839
  H  -0.345129  -1.123140   0.122861
  F  -0.553047   0.487899  -1.098361
  F  -0.499554   0.666604   1.073399
  F   3.551163   3.418998  -1.737808
  H   2.477295   1.836155  -2.435719
  H   4.008618   1.446082  -1.572697
10

  C  -0.025878  -0.058859   0.037353
  S   1.848690  -0.042147   0.020784
  S   2.198741   2.028250   0.010077
  C   2.854581   2.180477  -1.742064
  H  -0.331268  -1.136558   0.118216
  F  -0.547141   0.485010  -1.087968
  F  -0.515177   0.640512   1.086141
  F   3.263813   3.469436  -1.905292
  H   2.056147   1.929069  -2.464414
  H   3.700657   1.483937  -1.881384
10

  C  -0.020968  -0.068632   0.044939
  S   1.853999  -0.029240   0.035594
  S   2.192865   2.036901   0.002692
  C   2.548264   2.236962  -1.829882
  H  -0.315229  -1.150427   0.110633
  F  -0.538996   0.482549  -1.079011
  F  -0.527164   0.613141   1.096874
  F   2.955322   3.522675  -2.021753
  H   1.632778   2.026011  -2.413019
  H   3.340401   1.528057  -2.130509
10

  C  -0.015135  -0.081507   0.050744
  S   1.859449  -0.018023   0.046955
  S   2.187073   2.046798  -0.001304
  C   2.231548   2.298585  -1.861538
  H  -0.295706  -1.167594   0.104717
  F  -0.533770   0.472180  -1.072507
  F  -0.538837   0.584491   1.104007
  F   2.644112   3.577623  -2.084341
  H   1.222547   2.135291  -2.283528
  H   2.934792   1.575881  -2.312892
10

  C  -0.005784  -0.109815   0.053026
  S   1.866919  -0.005104   0.057959
  S   2.172290   2.063339  -0.000150
  C   1.909327   2.377109  -1.832990
  H  -0.260227  -1.201360   0.124712
  F  -0.529534   0.408802  -1.085237
  F  -0.556508   0.563148   1.087937
  F   2.394276   3.621784  -2.101953
  H   0.830809   2.321952  -2.070470
  H   2.449312   1.609601  -2.416276
10

  C   0.015893  -0.154486   0.042213
  S   1.882530   0.016509   0.077376
  S   2.131270   2.096370   0.022433
  C   1.584293   2.472324  -1.734659
  H  -0.199341  -1.253047   0.133206
  F  -0.502521   0.317578  -1.119010
  F  -0.584153   0.520538   1.048027
  F   2.218301   3.612542  -2.129094
  H   0.488346   2.616513  -1.760323
  H   1.854369   1.623485  -2.388720
10

  C   0.010205  -0.177146   0.032473
  S   1.877557  -0.013567   0.040526
  S   2.160726   2.069453   0.019616
  C   1.307227   2.543717  -1.583972
  H  -0.205497  -1.267985   0.190827
  F  -0.516926   0.222834  -1.152039
  F  -0.582844   0.559694   0.998405
  F   1.859932   3.716399  -2.005961
  H   0.224513   2.676143  -1.403897
  H   1.457493   1.744145  -2.332377
10

  C   0.000468  -0.193507   0.026490
  S   1.868310  -0.046735  -0.003865
  S   2.194094   2.039828  -0.003356
  C   1.063157   2.602796  -1.390675
  H  -0.220391  -1.268335   0.266249
  F  -0.540379   0.120997  -1.177734
  F  -0.576648   0.616654   0.942570
  F   1.484899   3.845506  -1.760153
  H   0.020231   2.646308  -1.026586
  H   1.126733   1.895786  -2.238528
10

  C  -0.006234  -0.217317   0.026595
  S   1.858231  -0.059863  -0.017950
  S   2.200225   2.036047  -0.023380
  C   0.852512   2.661148  -1.167845
  H  -0.214230  -1.291844   0.279440
  F  -0.560619   0.078010  -1.176096
  F  -0.585985   0.595764   0.939603
  F   1.179456   3.950675  -1.466165
  H  -0.124232   2.623502  -0.651368
  H   0.809735   2.043404  -2.084196
10

  C  -0.012160  -0.248471   0.034322
  S   1.846492  -0.062891  -0.010655
  S   2.192706   2.044653  -0.038581
  C   0.683043   2.719452  -0.922282
  H  -0.195201  -1.336404   0.247082
  F  -0.584009   0.081404  -1.150814
  F  -0.603537   0.514367   0.984152
  F   0.947020   4.040890  -1.131106
  H  -0.212132   2.602408  -0.284190
  H   0.526055   2.194083  -1.882771
10

  C  -0.014495  -0.279747   0.037403
  S   1.838196  -0.062887  -0.001012
  S   2.180538   2.055621  -0.042809
  C   0.556141   2.771028  -0.646126
  H  -0.171983  -1.382546   0.185529
  F  -0.604571   0.109490  -1.119987
  F  -0.615389   0.408716   1.037843
  F   0.784385   4.110724  -0.759502
  H  -0.244569   2.576575   0.090987
  H   0.275408   2.338277  -1.624405
10

  C  -0.013513  -0.304236   0.027875
  S   1.834527  -0.061569   0.003387
  S   2.169348   2.065362  -0.031560
  C   0.475854   2.808424  -0.338183
  H  -0.151699  -1.417251   0.101157
  F  -0.618416   0.154605  -1.095545
  F  -0.619659   0.301294   1.078280
  F   0.691109   4.154621  -0.369663
  H  -0.216075   2.545132   0.483038
  H   0.061909   2.457517  -1.301747
10

  C  -0.012279  -0.313909   0.000025
  S   1.834019  -0.060404   0.000119
  S   2.164588   2.069975   0.000076
  C   0.447759   2.822630  -0.000040
  H  -0.143061  -1.430275  -0.000285
  F  -0.621468   0.215602  -1.089347
  F  -0.621499   0.214996   1.089674
  F   0.663059   4.169041  -0.000192
  H  -0.111228   2.518099   0.904139
  H  -0.111196   2.517891  -0.904169
10

  C  -0.013513  -0.304236  -0.027875
  S   1.834527  -0.061569  -0.003387
  S   2.169348   2.065362   0.031560
  C   0.475854   2.808424   0.338183
  H  -0.151699  -1.417251  -0.101157
  F  -0.619659   0.301294  -1.078280
  F  -0.618416   0.154605   1.095545
  F   0.691109   4.154621   0.369663
  H   0.061909   2.457517   1.301747
  H  -0.216075   2.545132  -0.483038
10

  C  -0.014495  -0.279747  -0.037403
  S   1.838196  -0.062887   0.001012
  S   2.180538   2.055621   0.042809
  C   0.556141   2.771028   0.646126
  H  -0.171983  -1.382546  -0.185529
  F  -0.615389   0.408716  -1.037843
  F  -0.604571   0.109490   1.119987
  F   0.784385   4.110724   0.759502
  H   0.275408   2.338277   1.624405
  H  -0.244569   2.576575  -0.090987
10

  C  -0.012160  -0.248471  -0.034322
  S   1.846492  -0.062891   0.010655
  S   2.192706   2.044653   0.038581
  C   0.683043   2.719452   0.922282
  H  -0.195201  -1.336404  -0.247082
  F  -0.603537   0.514367  -0.984152
  F  -0.584009   0.081404   1.150814
  F   0.947020   4.040890   1.131106
  H   0.526055   2.194083   1.882771
  H  -0.212132   2.602408   0.284190
10

  C  -0.006234  -0.217317  -0.026595
  S   1.858231  -0.059863   0.017950
  S   2.200225   2.036047   0.023380
  C   0.852512   2.661148   1.167845
  H  -0.214230  -1.291844  -0.279440
  F  -0.585985   0.595764  -0.939603
  F  -0.560619   0.078010   1.176096
  F   1.179456   3.950675   1.466165
  H   0.809735   2.043404   2.084196
  H  -0.124232   2.623502   0.651368
10

  C   0.000468  -0.193507  -0.026490
  S   1.868310  -0.046735   0.003865
  S   2.194094   2.039828   0.003356
  C   1.063157   2.602796   1.390675
  H  -0.220391  -1.268335  -0.266249
  F  -0.576648   0.616654  -0.942570
  F  -0.540379   0.120997   1.177734
  F   1.484899   3.845506   1.760153
  H   1.126733   1.895786   2.238528
  H   0.020231   2.646308   1.026586
10

  C   0.010205  -0.177146  -0.032473
  S   1.877557  -0.013567  -0.040526
  S   2.160726   2.069453  -0.019616
  C   1.307227   2.543717   1.583972
  H  -0.205497  -1.267985  -0.190827
  F  -0.582844   0.559694  -0.998405
  F  -0.516926   0.222834   1.152039
  F   1.859932   3.716399   2.005961
  H   1.457493   1.744145   2.332377
  H   0.224513   2.676143   1.403897
10

  C   0.015893  -0.154486  -0.042213
  S   1.882530   0.016509  -0.077376
  S   2.131270   2.096370  -0.022433
  C   1.584293   2.472324   1.734659
  H  -0.199341  -1.253047  -0.133206
  F  -0.584153   0.520538  -1.048027
  F  -0.502521   0.317578   1.119010
  F   2.218301   3.612542   2.129094
  H   1.854369   1.623485   2.388720
  H   0.488346   2.616513   1.760323
10

  C  -0.005784  -0.109815  -0.053026
  S   1.866919  -0.005104  -0.057959
  S   2.172290   2.063339   0.000150
  C   1.909327   2.377109   1.832990
  H  -0.260227  -1.201360  -0.124712
  F  -0.556508   0.563148  -1.087937
  F  -0.529534   0.408802   1.085237
  F   2.394276   3.621784   2.101953
  H   2.449312   1.609601   2.416276
  H   0.830809   2.321952   2.070470
10

  C  -0.015135  -0.081507  -0.050744
  S   1.859449  -0.018023  -0.046955
  S   2.187073   2.046798   0.001304
  C   2.231548   2.298585   1.861538
  H  -0.295706  -1.167594  -0.104717
  F  -0.538837   0.584491  -1.104007
  F  -0.533770   0.472180   1.072507
  F   2.644112   3.577623   2.084341
  H   2.934792   1.575881   2.312892
  H   1.222547   2.135291   2.283528
10

  C  -0.020968  -0.068632  -0.044939
  S   1.853999  -0.029240  -0.035594
  S   2.192865   2.036901  -0.002692
  C   2.548264   2.236962   1.829882
  H  -0.315229  -1.150427  -0.110633
  F  -0.527164   0.613141  -1.096874
  F  -0.538996   0.482549   1.079011
  F   2.955322   3.522675   2.021753
  H   3.340401   1.528057   2.130509
  H   1.632778   2.026011   2.413019
10

  C  -0.025878  -0.058859  -0.037353
  S   1.848690  -0.042147  -0.020784
  S   2.198741   2.028250  -0.010077
  C   2.854581   2.180477   1.742064
  H  -0.331268  -1.136558  -0.118216
  F  -0.515177   0.640512  -1.086141
  F  -0.547141   0.485010   1.087968
  F   3.263813   3.469436   1.905292
  H   3.700657   1.483937   1.881384
  H   2.056147   1.929069   2.464414
10

  C  -0.028143  -0.049967  -0.027564
  S   1.845385  -0.056885  -0.001346
  S   2.203532   2.020185  -0.022856
  C   3.139644   2.127834   1.599839
  H  -0.345129  -1.123140  -0.122861
  F  -0.499554   0.666604  -1.073399
  F  -0.553047   0.487899   1.098361
  F   3.551163   3.418998   1.737808
  H   4.008618   1.446082   1.572697
  H   2.477295   1.836155   2.435719
10

  C  -0.026982  -0.042520  -0.017588
  S   1.844897  -0.068071   0.016893
  S   2.202463   2.017884  -0.037497
  C   3.394350   2.080129   1.409408
  H  -0.353390  -1.112044  -0.121588
  F  -0.484557   0.685359  -1.062383
  F  -0.554654   0.493468   1.107659
  F   3.815252   3.370716   1.522999
  H   4.252114   1.411248   1.214914
  H   2.882182   1.751984   2.332771
10

  C  -0.023212  -0.036943  -0.008961
  S   1.846975  -0.073835   0.031488
  S   2.195282   2.022134  -0.050338
  C   3.611605   2.038984   1.177815
  H  -0.355647  -1.103996  -0.118818
  F  -0.472622   0.698842  -1.052282
  F  -0.552392   0.497357   1.116250
  F   4.049962   3.326062   1.261286
  H   4.423642   1.379066   0.822093
  H   3.259697   1.680256   2.162829
10

  C  -0.018475  -0.032865  -0.002905
  S   1.850386  -0.072756   0.039334
  S   2.183454   2.033281  -0.056847
  C   3.786514   2.005080   0.913098
  H  -0.352644  -1.099325  -0.112985
  F  -0.467333   0.704508  -1.045707
  F  -0.547130   0.501962   1.122338
  F   4.244871   3.287007   0.960094
  H   4.521105   1.353188   0.405812
  H   3.603125   1.617882   1.932612
10

  C  -0.014650  -0.029701   0.000047
  S   1.853478  -0.064895   0.036813
  S   2.169890   2.050323  -0.051710
  C   3.915715   1.978957   0.623457
  H  -0.346093  -1.098363  -0.096007
  F  -0.472578   0.694604  -1.048099
  F  -0.538832   0.516355   1.122127
  F   4.389074   3.256184   0.636275
  H   4.544573   1.342609  -0.026165
  H   3.907911   1.556126   1.645344
10

  C  -0.012836  -0.027289   0.000490
  S   1.855041  -0.054348   0.022143
  S   2.158910   2.067815  -0.031225
  C   3.996074   1.961784   0.316541
  H  -0.339184  -1.100287  -0.057476
  F  -0.488781   0.660350  -1.064160
  F  -0.526337   0.551864   1.111015
  F   4.475353   3.236820   0.312680
  H   4.493518   1.360877  -0.467221
  H   4.167007   1.485967   1.300174
10

  C  -0.012479  -0.026298   0.000000
  S   1.855346  -0.049354   0.000000
  S   2.154765   2.075452  -0.000000
  C   4.023596   1.955660  -0.000000
  H  -0.336200  -1.101676   0.000000
  F  -0.509023   0.606222  -1.089033
  F  -0.509023   0.606222   1.089033
  F   4.503453   3.230466   0.000000
  H   4.366510   1.413556  -0.900893
  H   4.366510   1.413555   0.900893
