10

  C   0.000000   0.000000   0.000000
  S   1.830000   0.000000   0.000000
  S   2.150691   2.024761   0.000000
  C   2.195474   2.307512  -1.807470
  H  -0.354869  -1.030615  -0.000000
 Cl  -0.354869   0.605780  -0.833785
  H  -0.354869   0.605780   0.833785
  H   2.363397   3.367736  -1.996746
  H   1.287040   1.901819  -2.252735
  H   2.934080   1.640953  -2.252735
10

  C   0.018934  -0.043337   0.038142
  S   1.852902  -0.011902  -0.061483
  S   2.232531   2.043556   0.058211
  C   2.246332   2.292042   1.888689
  H  -0.285340  -1.092105   0.143296
 Cl  -0.795126   0.642421  -1.426309
  H  -0.332769   0.511629   0.912467
  H   2.465427   3.344301   2.073722
  H   3.014495   1.682640   2.359312
  H   1.278689   2.054481   2.323640
10

  C   0.033175  -0.015696   0.081123
  S   1.859437  -0.053018  -0.012816
  S   2.182811   2.057444   0.125569
  C   4.022702   1.982707   0.028210
  H  -0.309580  -1.050001   0.206270
 Cl  -0.759635   0.670441  -1.399199
  H  -0.302103   0.567798   0.944989
  H   4.392590   3.007281   0.074847
  H   4.344716   1.536223  -0.910910
  H   4.439342   1.420624   0.861917
10

  C   0.031074  -0.014745   0.082420
  S   1.856579  -0.067132  -0.028078
  S   2.213373   2.033507   0.139178
  C   3.963048   1.997659  -0.442277
  H  -0.316059  -1.044097   0.233889
 Cl  -0.774613   0.643949  -1.403258
  H  -0.292216   0.587519   0.937793
  H   4.330772   3.024086  -0.429432
  H   4.027208   1.612138  -1.458321
  H   4.584628   1.395215   0.217380
10

  C   0.024411  -0.017545   0.087093
  S   1.850036  -0.084545  -0.032989
  S   2.247856   2.002518   0.130824
  C   3.789073   2.034920  -0.882447
  H  -0.327827  -1.041985   0.259394
 Cl  -0.785768   0.619713  -1.405449
  H  -0.289638   0.602153   0.933121
  H   4.140001   3.067171  -0.906090
  H   3.592489   1.702824  -1.900330
  H   4.563240   1.412737  -0.437970
10

  C   0.016858  -0.023813   0.095544
  S   1.843933  -0.095053  -0.025070
  S   2.273853   1.977710   0.102693
  C   3.510154   2.090717  -1.263230
  H  -0.336901  -1.045247   0.282654
 Cl  -0.791063   0.594003  -1.406531
  H  -0.294625   0.610114   0.931608
  H   3.836034   3.129977  -1.320201
  H   3.066533   1.803076  -2.214725
  H   4.374793   1.463059  -1.058577
10

  C   0.012269  -0.033115   0.105820
  S   1.841889  -0.094014  -0.007667
  S   2.283839   1.966636   0.065608
  C   3.142700   2.160580  -1.557914
  H  -0.337914  -1.054490   0.300254
 Cl  -0.788987   0.567945  -1.406914
  H  -0.304734   0.609176   0.933172
  H   3.441847   3.205895  -1.643987
  H   2.477484   1.910048  -2.382194
  H   4.031370   1.535102  -1.602578
10

  C   0.009879  -0.045693   0.114868
  S   1.841792  -0.086565   0.007391
  S   2.284571   1.965119   0.030752
  C   2.713769   2.243808  -1.744891
  H  -0.330817  -1.066997   0.325977
 Cl  -0.793786   0.519155  -1.411008
  H  -0.315718   0.609368   0.928758
  H   2.994251   3.292524  -1.850039
  H   1.861240   2.035381  -2.388151
  H   3.555120   1.621179  -2.040197
10

  C   0.006543  -0.071254   0.118365
  S   1.838862  -0.086177  -0.001234
  S   2.290739   1.959732   0.000105
  C   2.255450   2.359482  -1.804482
  H  -0.312105  -1.071569   0.436703
 Cl  -0.829250   0.308514  -1.448397
  H  -0.325232   0.658196   0.863782
  H   2.594877   3.390369  -1.911823
  H   1.249021   2.270525  -2.206320
  H   2.927171   1.705908  -2.356384
10

  C   0.010118  -0.100543   0.107177
  S   1.842123  -0.089406  -0.028226
  S   2.288076   1.960426  -0.022456
  C   1.789768   2.484305  -1.723466
  H  -0.286685  -1.050478   0.568054
 Cl  -0.840994   0.021105  -1.493076
  H  -0.334522   0.721257   0.742597
  H   2.177655   3.492160  -1.875789
  H   0.708021   2.499207  -1.828581
  H   2.218290   1.822140  -2.472776
10

  C   0.014253  -0.115223   0.088324
  S   1.845608  -0.096235  -0.065150
  S   2.283447   1.964885  -0.044989
  C   1.356485   2.581855  -1.517580
  H  -0.273901  -1.008053   0.655865
 Cl  -0.839509  -0.191799  -1.514055
  H  -0.337125   0.769060   0.629237
  H   1.666181   3.614909  -1.680561
  H   0.284028   2.558171  -1.343758
  H   1.592919   1.996117  -2.403730
10

  C   0.003738  -0.144173   0.079125
  S   1.830008  -0.109899  -0.098569
  S   2.275191   1.966085  -0.084928
  C   1.002100   2.669888  -1.218197
  H  -0.262864  -1.043756   0.646792
 Cl  -0.873903  -0.225499  -1.508150
  H  -0.354299   0.728613   0.633217
  H   1.232691   3.731130  -1.322787
  H   0.003544   2.569775  -0.802690
  H   1.036375   2.200744  -2.199648
10

  C   0.000510  -0.200894   0.082305
  S   1.822303  -0.085528  -0.055073
  S   2.221741   2.018227  -0.073828
  C   0.725220   2.760362  -0.851513
  H  -0.226311  -1.150214   0.583152
 Cl  -0.856824  -0.216404  -1.518232
  H  -0.410511   0.609520   0.690414
  H   0.910931   3.835039  -0.893075
  H  -0.166621   2.588769  -0.256206
  H   0.567839   2.390614  -1.862786
10

  C   0.001126  -0.246759   0.049350
  S   1.818089  -0.066256  -0.042989
  S   2.181147   2.057387  -0.023456
  C   0.545921   2.823507  -0.384582
  H  -0.192034  -1.239147   0.475975
 Cl  -0.831420  -0.179060  -1.564199
  H  -0.451893   0.500154   0.705919
  H   0.728267   3.898714  -0.431867
  H  -0.175149   2.635284   0.405887
  H   0.144301   2.495529  -1.340742
10

  C   0.008137  -0.250245   0.007724
  S   1.822765  -0.049991  -0.020726
  S   2.161291   2.080551   0.056227
  C   0.477549   2.821954   0.119064
  H  -0.182409  -1.278465   0.340949
 Cl  -0.791753  -0.043021  -1.610465
  H  -0.470417   0.429723   0.716256
  H   0.629504   3.902530   0.090830
  H  -0.043068   2.575488   1.040988
  H  -0.122905   2.535123  -0.740849
10

  C   0.013389  -0.226092  -0.007863
  S   1.829562  -0.045413  -0.010462
  S   2.160882   2.077719   0.090874
  C   0.531857   2.769711   0.596964
  H  -0.190389  -1.283694   0.203478
 Cl  -0.780445   0.185770  -1.589046
  H  -0.453030   0.375015   0.775794
  H   0.676220   3.849767   0.659716
  H   0.219042   2.408867   1.574178
  H  -0.238733   2.567704  -0.142927
10

  C   0.024139  -0.191937   0.014015
  S   1.845135  -0.036532   0.011878
  S   2.167353   2.073057   0.079833
  C   0.698920   2.691147   1.003037
  H  -0.192432  -1.264363   0.101914
 Cl  -0.783391   0.426556  -1.487567
  H  -0.420133   0.318056   0.871720
  H   0.868900   3.755758   1.171107
  H   0.590969   2.202562   1.969037
  H  -0.211183   2.575186   0.419868
10

  C   0.027516  -0.156469   0.027896
  S   1.855394  -0.034036   0.025660
  S   2.176043   2.057588   0.067939
  C   0.977244   2.602272   1.357336
  H  -0.213038  -1.227106   0.040884
 Cl  -0.774773   0.593371  -1.411692
  H  -0.394658   0.300051   0.926371
  H   1.203006   3.645663   1.581214
  H   1.080042   2.019639   2.270387
  H  -0.044197   2.541935   0.989840
10

  C   0.018067  -0.120201   0.016309
  S   1.850211  -0.022183   0.007635
  S   2.180556   2.052853   0.072464
  C   1.356094   2.508052   1.658676
  H  -0.241779  -1.185650   0.051026
 Cl  -0.770199   0.615009  -1.437386
  H  -0.394117   0.362811   0.905825
  H   1.602016   3.550748   1.863184
  H   1.715691   1.893509   2.481202
  H   0.275847   2.418739   1.577465
10

  C   0.002619  -0.074955   0.008397
  S   1.837585  -0.010418  -0.012997
  S   2.183441   2.053552   0.079583
  C   1.802914   2.398377   1.853097
  H  -0.283638  -1.129180   0.109742
 Cl  -0.767048   0.584889  -1.491552
  H  -0.396244   0.476454   0.864148
  H   1.997772   3.457068   2.028347
  H   2.436051   1.808072   2.511774
  H   0.758398   2.196312   2.075999
10

  C  -0.006168  -0.057967   0.016232
  S   1.829911  -0.005986  -0.018762
  S   2.178456   2.056623   0.081272
  C   2.273926   2.307397   1.909309
  H  -0.302536  -1.108496   0.126299
 Cl  -0.772265   0.596330  -1.488448
  H  -0.395877   0.507060   0.867859
  H   2.482508   3.363725   2.083032
  H   3.075178   1.713186   2.342605
  H   1.332941   2.051855   2.390289
10

  C  -0.009581  -0.049070   0.030276
  S   1.826056  -0.011500  -0.015645
  S   2.174035   2.057776   0.083000
  C   2.739349   2.222964   1.834591
  H  -0.314979  -1.098156   0.128989
 Cl  -0.772642   0.627854  -1.466756
  H  -0.391832   0.512106   0.888143
  H   2.978579   3.274112   2.000193
  H   3.631646   1.627241   2.012590
  H   1.959669   1.923955   2.531158
10

  C  -0.005087  -0.039696   0.048504
  S   1.828854  -0.026368  -0.004514
  S   2.170908   2.055738   0.081089
  C   3.165392   2.143600   1.635449
  H  -0.325321  -1.085231   0.137220
 Cl  -0.761599   0.662914  -1.441143
  H  -0.377384   0.519963   0.912093
  H   3.428875   3.190382   1.791501
  H   4.080452   1.562650   1.545100
  H   2.594675   1.789811   2.491100
10

  C   0.005882  -0.032022   0.065556
  S   1.837409  -0.042118   0.008111
  S   2.166827   2.054670   0.078341
  C   3.524236   2.076089   1.329590
  H  -0.328510  -1.073638   0.147061
 Cl  -0.745882   0.693040  -1.416811
  H  -0.356651   0.526539   0.934358
  H   3.818075   3.116984   1.469333
  H   4.387498   1.515057   0.978157
  H   3.190685   1.669942   2.282139
10

  C   0.018881  -0.025825   0.076616
  S   1.848144  -0.049595   0.013196
  S   2.163073   2.058820   0.082680
  C   3.795616   2.024550   0.941819
  H  -0.322823  -1.064881   0.159164
 Cl  -0.737600   0.706831  -1.400286
  H  -0.335549   0.533497   0.948559
  H   4.124364   3.058258   1.053202
  H   4.535468   1.486298   0.352768
  H   3.714298   1.570010   1.927124
10

  C   0.028974  -0.020026   0.080652
  S   1.856510  -0.049263   0.004701
  S   2.165910   2.064235   0.100739
  C   3.965270   1.992180   0.499086
  H  -0.313244  -1.057433   0.179099
 Cl  -0.744226   0.696405  -1.395760
  H  -0.317107   0.547333   0.950941
  H   4.321755   3.019608   0.577162
  H   4.519698   1.490328  -0.291731
  H   4.140255   1.484733   1.445817
10

  C   0.033175  -0.015696   0.081123
  S   1.859437  -0.053018  -0.012816
  S   2.182811   2.057444   0.125569
  C   4.022702   1.982707   0.028210
  H  -0.309580  -1.050001   0.206270
 Cl  -0.759635   0.670441  -1.399199
  H  -0.302103   0.567798   0.944989
  H   4.392590   3.007281   0.074847
  H   4.344716   1.536223  -0.910910
  H   4.439342   1.420624   0.861917
