10

  C   0.000000   0.000000   0.000000
  S   1.830000   0.000000   0.000000
  S   2.150691   2.024761   0.000000
  C   3.953569   2.029057  -0.313864
  H  -0.354869  -1.030615  -0.000000
  H  -0.354869   0.605780  -0.833785
  H  -0.354869   0.605780   0.833785
  H   4.305598   3.060122  -0.346731
  H   4.158754   1.446984  -1.212301
  H   4.444760   1.401685   0.429935
10

  C   0.311546   0.142303  -0.135511
  S   1.781562   0.005991   0.974199
  S   2.525316   1.967107   0.898764
  C   3.532709   1.904067  -0.647900
  H  -0.176397  -0.832182  -0.161313
  H   0.609156   0.412534  -1.145481
  H  -0.392333   0.880404   0.241645
  H   3.992310   2.883042  -0.784839
  H   2.908913   1.685499  -1.510885
  H   4.315706   1.153435  -0.570758
10

  C  -0.035626   0.027121   0.009218
  S   1.807505  -0.039328   0.008203
  S   2.175111   2.063785  -0.000930
  C   3.776477   2.035627  -0.915467
  H  -0.401658  -0.999588   0.018478
  H  -0.409825   0.529208  -0.880476
  H  -0.407119   0.537165   0.895418
  H   4.120497   3.065823  -1.007904
  H   3.652007   1.612522  -1.910033
  H   4.526505   1.465629  -0.371349
10

  C  -0.043597   0.022151   0.015104
  S   1.800580  -0.035236   0.012944
  S   2.182887   2.059557  -0.005220
  C   3.605464   2.068945  -1.180155
  H  -0.403966  -1.006568   0.031254
  H  -0.421904   0.517371  -0.876554
  H  -0.415953   0.535570   0.898802
  H   3.931026   3.103177  -1.293130
  H   3.313439   1.679895  -2.153178
  H   4.435315   1.483066  -0.791229
10

  C  -0.051160   0.015439   0.022431
  S   1.794174  -0.030378   0.018583
  S   2.189770   2.054623  -0.011521
  C   3.392441   2.110594  -1.410742
  H  -0.404755  -1.015459   0.049189
  H  -0.434672   0.499797  -0.872789
  H  -0.424631   0.535358   0.901657
  H   3.699961   3.148790  -1.537539
  H   2.938242   1.758917  -2.334392
  H   4.272307   1.510471  -1.190465
10

  C  -0.056975   0.007123   0.030558
  S   1.789396  -0.025452   0.024595
  S   2.194494   2.049706  -0.018985
  C   3.142855   2.159362  -1.599735
  H  -0.403249  -1.025878   0.070378
  H  -0.445751   0.477655  -0.869556
  H  -0.431835   0.535701   0.903841
  H   3.434092   3.201080  -1.736068
  H   2.535725   1.846565  -2.446082
  H   4.041011   1.547903  -1.555345
10

  C  -0.059895  -0.002219   0.038532
  S   1.787201  -0.021225   0.030338
  S   2.196333   2.045536  -0.026226
  C   2.863492   2.213414  -1.740552
  H  -0.399142  -1.037005   0.090718
  H  -0.453155   0.454487  -0.866549
  H  -0.436784   0.534864   0.905618
  H   3.138618   3.258355  -1.885452
  H   2.117869   1.937088  -2.482237
  H   3.748625   1.595833  -1.872741
10

  C  -0.059321  -0.011259   0.045296
  S   1.788054  -0.018427   0.035192
  S   2.195407   2.042749  -0.031850
  C   2.562470   2.270039  -1.828110
  H  -0.393010  -1.047450   0.104456
  H  -0.455320   0.436142  -0.863061
  H  -0.438751   0.530695   0.908193
  H   2.817006   3.318768  -1.982778
  H   1.698577   2.022186  -2.439952
  H   3.406161   1.654554  -2.130828
10

  C  -0.055485  -0.018644   0.050078
  S   1.791688  -0.017484   0.038737
  S   2.192589   2.041677  -0.035105
  C   2.249174   2.326438  -1.859355
  H  -0.385843  -1.055912   0.108324
  H  -0.452218   0.426551  -0.858890
  H  -0.437607   0.522694   0.912212
  H   2.475054   3.380254  -2.023382
  H   1.292319   2.095631  -2.320848
  H   3.026403   1.722521  -2.321457
10

  C  -0.049870  -0.026496   0.052593
  S   1.796671  -0.018378   0.040621
  S   2.188705   2.042397  -0.036641
  C   1.934208   2.383287  -1.833568
  H  -0.376849  -1.064741   0.111807
  H  -0.447213   0.414396  -0.858005
  H  -0.435288   0.515558   0.912916
  H   2.132690   3.441884  -2.001948
  H   0.910948   2.167396  -2.129856
  H   2.616877   1.794153  -2.441360
10

  C  -0.043810  -0.044039   0.050832
  S   1.801726  -0.020984   0.038851
  S   2.182359   2.045208  -0.036446
  C   1.627659   2.448423  -1.750039
  H  -0.360718  -1.083165   0.140966
  H  -0.444903   0.363461  -0.873257
  H  -0.435884   0.519737   0.894187
  H   1.828800   3.505884  -1.922245
  H   0.561484   2.273314  -1.866148
  H   2.172275   1.860486  -2.485252
10

  C  -0.036716  -0.069801   0.042190
  S   1.807479  -0.025319   0.031714
  S   2.173252   2.050074  -0.031691
  C   1.338120   2.518919  -1.608359
  H  -0.339216  -1.107420   0.184218
  H  -0.441257   0.283591  -0.902187
  H  -0.439166   0.529255   0.856005
  H   1.559942   3.569316  -1.797547
  H   0.261012   2.400197  -1.530077
  H   1.708937   1.924874  -2.440666
10

  C  -0.032003  -0.093381   0.034357
  S   1.810654  -0.030554   0.025378
  S   2.165990   2.055956  -0.027289
  C   1.078372   2.582893  -1.419709
  H  -0.321488  -1.130245   0.206399
  H  -0.438875   0.226426  -0.920799
  H  -0.444508   0.522709   0.830390
  H   1.297283   3.630935  -1.625071
  H   0.029338   2.493679  -1.151916
  H   1.275712   2.000882  -2.317327
10

  C  -0.032039  -0.118085   0.034253
  S   1.808667  -0.035803   0.024737
  S   2.160745   2.062351  -0.028894
  C   0.858728   2.642391  -1.196526
  H  -0.305138  -1.160925   0.197856
  H  -0.444895   0.202930  -0.917798
  H  -0.454268   0.482884   0.836754
  H   1.049751   3.698231  -1.390374
  H  -0.131722   2.543638  -0.761602
  H   0.899031   2.101912  -2.139769
10

  C  -0.034224  -0.147217   0.039012
  S   1.804170  -0.040868   0.027605
  S   2.154917   2.069051  -0.033466
  C   0.683066   2.699691  -0.942907
  H  -0.286518  -1.200810   0.164154
  H  -0.457548   0.200534  -0.898852
  H  -0.465531   0.413058   0.865616
  H   0.841663   3.768125  -1.093468
  H  -0.227634   2.563229  -0.366949
  H   0.575915   2.224699  -1.915589
10

  C  -0.035284  -0.177478   0.040528
  S   1.800682  -0.045447   0.028282
  S   2.147707   2.075324  -0.034049
  C   0.553318   2.750670  -0.658698
  H  -0.267060  -1.241012   0.111138
  H  -0.470923   0.210270  -0.875778
  H  -0.473185   0.328800   0.897593
  H   0.689115   3.829405  -0.746444
  H  -0.261114   2.560914   0.034439
  H   0.300405   2.353806  -1.639090
10

  C  -0.034189  -0.201560   0.028093
  S   1.799796  -0.049133   0.019451
  S   2.140816   2.080242  -0.023002
  C   0.472001   2.787458  -0.341919
  H  -0.250708  -1.270513   0.052343
  H  -0.478772   0.219017  -0.869458
  H  -0.476849   0.259044   0.907737
  H   0.601261   3.870232  -0.373893
  H  -0.227153   2.548027   0.454320
  H   0.067182   2.461086  -1.296633
10

  C  -0.033299  -0.211472   0.000000
  S   1.799990  -0.050562  -0.000002
  S   2.137774   2.082122  -0.000002
  C   0.443936   2.801673   0.000000
  H  -0.243886  -1.281942   0.000007
  H  -0.479449   0.226388  -0.888880
  H  -0.479449   0.226400   0.888875
  H   0.574450   3.884826   0.000007
  H  -0.115687   2.523100   0.888875
  H  -0.115684   2.523112  -0.888880
10

  C  -0.034189  -0.201560  -0.028093
  S   1.799796  -0.049133  -0.019451
  S   2.140816   2.080242   0.023002
  C   0.472001   2.787458   0.341919
  H  -0.250708  -1.270513  -0.052343
  H  -0.476849   0.259044  -0.907737
  H  -0.478772   0.219017   0.869458
  H   0.601261   3.870232   0.373892
  H   0.067182   2.461086   1.296633
  H  -0.227153   2.548026  -0.454320
10

  C  -0.035284  -0.177478  -0.040528
  S   1.800682  -0.045447  -0.028282
  S   2.147707   2.075324   0.034049
  C   0.553318   2.750670   0.658698
  H  -0.267060  -1.241012  -0.111138
  H  -0.473185   0.328800  -0.897593
  H  -0.470923   0.210270   0.875778
  H   0.689115   3.829405   0.746444
  H   0.300405   2.353806   1.639090
  H  -0.261114   2.560914  -0.034439
10

  C  -0.034224  -0.147217  -0.039012
  S   1.804170  -0.040868  -0.027605
  S   2.154917   2.069051   0.033466
  C   0.683066   2.699691   0.942907
  H  -0.286518  -1.200810  -0.164154
  H  -0.465531   0.413058  -0.865616
  H  -0.457548   0.200534   0.898852
  H   0.841663   3.768125   1.093468
  H   0.575915   2.224699   1.915589
  H  -0.227634   2.563229   0.366949
10

  C  -0.032039  -0.118085  -0.034253
  S   1.808667  -0.035803  -0.024737
  S   2.160745   2.062351   0.028894
  C   0.858728   2.642391   1.196526
  H  -0.305138  -1.160925  -0.197856
  H  -0.454268   0.482884  -0.836754
  H  -0.444895   0.202930   0.917798
  H   1.049751   3.698231   1.390374
  H   0.899031   2.101913   2.139769
  H  -0.131722   2.543638   0.761602
10

  C  -0.032003  -0.093381  -0.034357
  S   1.810654  -0.030554  -0.025378
  S   2.165990   2.055956   0.027289
  C   1.078372   2.582893   1.419709
  H  -0.321488  -1.130245  -0.206399
  H  -0.444508   0.522709  -0.830390
  H  -0.438875   0.226426   0.920799
  H   1.297283   3.630935   1.625071
  H   1.275712   2.000882   2.317327
  H   0.029338   2.493679   1.151916
10

  C  -0.036716  -0.069801  -0.042190
  S   1.807479  -0.025319  -0.031714
  S   2.173252   2.050074   0.031691
  C   1.338120   2.518919   1.608359
  H  -0.339216  -1.107420  -0.184218
  H  -0.439166   0.529255  -0.856005
  H  -0.441257   0.283591   0.902187
  H   1.559942   3.569317   1.797547
  H   1.708937   1.924874   2.440666
  H   0.261012   2.400197   1.530077
10

  C  -0.043810  -0.044039  -0.050832
  S   1.801726  -0.020984  -0.038851
  S   2.182359   2.045208   0.036446
  C   1.627659   2.448423   1.750039
  H  -0.360718  -1.083165  -0.140966
  H  -0.435884   0.519737  -0.894187
  H  -0.444903   0.363461   0.873257
  H   1.828800   3.505884   1.922245
  H   2.172275   1.860486   2.485252
  H   0.561484   2.273314   1.866148
10

  C  -0.049870  -0.026496  -0.052593
  S   1.796671  -0.018378  -0.040621
  S   2.188705   2.042397   0.036641
  C   1.934208   2.383287   1.833568
  H  -0.376849  -1.064741  -0.111807
  H  -0.435288   0.515558  -0.912916
  H  -0.447213   0.414396   0.858005
  H   2.132690   3.441884   2.001948
  H   2.616877   1.794153   2.441360
  H   0.910948   2.167396   2.129856
10

  C  -0.055485  -0.018644  -0.050078
  S   1.791688  -0.017484  -0.038737
  S   2.192589   2.041677   0.035105
  C   2.249174   2.326438   1.859355
  H  -0.385843  -1.055912  -0.108324
  H  -0.437607   0.522694  -0.912212
  H  -0.452218   0.426551   0.858890
  H   2.475054   3.380254   2.023382
  H   3.026403   1.722521   2.321457
  H   1.292319   2.095631   2.320848
10

  C  -0.059321  -0.011259  -0.045296
  S   1.788054  -0.018427  -0.035192
  S   2.195407   2.042749   0.031850
  C   2.562470   2.270039   1.828110
  H  -0.393010  -1.047450  -0.104456
  H  -0.438751   0.530695  -0.908193
  H  -0.455320   0.436142   0.863061
  H   2.817006   3.318768   1.982778
  H   3.406161   1.654554   2.130828
  H   1.698577   2.022186   2.439952
10

  C  -0.059895  -0.002219  -0.038532
  S   1.787201  -0.021225  -0.030338
  S   2.196333   2.045536   0.026226
  C   2.863492   2.213414   1.740552
  H  -0.399142  -1.037005  -0.090718
  H  -0.436784   0.534864  -0.905618
  H  -0.453155   0.454487   0.866549
  H   3.138618   3.258355   1.885452
  H   3.748625   1.595833   1.872741
  H   2.117869   1.937088   2.482237
10

  C  -0.056975   0.007123  -0.030558
  S   1.789396  -0.025452  -0.024595
  S   2.194494   2.049706   0.018985
  C   3.142855   2.159362   1.599735
  H  -0.403249  -1.025878  -0.070378
  H  -0.431835   0.535701  -0.903841
  H  -0.445751   0.477655   0.869556
  H   3.434092   3.201080   1.736068
  H   4.041011   1.547903   1.555345
  H   2.535725   1.846565   2.446082
10

  C  -0.051160   0.015439  -0.022431
  S   1.794174  -0.030378  -0.018583
  S   2.189770   2.054623   0.011521
  C   3.392441   2.110594   1.410742
  H  -0.404755  -1.015459  -0.049189
  H  -0.424631   0.535358  -0.901657
  H  -0.434672   0.499797   0.872789
  H   3.699961   3.148790   1.537539
  H   4.272307   1.510471   1.190465
  H   2.938242   1.758917   2.334392
10

  C  -0.043597   0.022151  -0.015104
  S   1.800580  -0.035236  -0.012944
  S   2.182887   2.059557   0.005220
  C   3.605464   2.068945   1.180155
  H  -0.403966  -1.006568  -0.031254
  H  -0.415953   0.535570  -0.898802
  H  -0.421904   0.517371   0.876554
  H   3.931026   3.103177   1.293130
  H   4.435315   1.483066   0.791229
  H   3.313439   1.679895   2.153178
10

  C  -0.035626   0.027121  -0.009218
  S   1.807505  -0.039328  -0.008203
  S   2.175111   2.063785   0.000930
  C   3.776477   2.035627   0.915467
  H  -0.401658  -0.999588  -0.018478
  H  -0.407119   0.537165  -0.895418
  H  -0.409825   0.529208   0.880476
  H   4.120497   3.065823   1.007904
  H   4.526505   1.465629   0.371349
  H   3.652007   1.612522   1.910033
10

  C  -0.028672   0.030558  -0.004956
  S   1.813640  -0.042320  -0.004584
  S   2.168032   2.066926  -0.001045
  C   3.901403   2.011302   0.624855
  H  -0.398971  -0.994549  -0.010161
  H  -0.399281   0.539479  -0.892329
  H  -0.400061   0.536267   0.883976
  H   4.261228   3.038068   0.690207
  H   4.545230   1.459107  -0.056579
  H   3.945942   1.557361   1.612694
10

  C  -0.023954   0.032599  -0.002081
  S   1.817845  -0.044098  -0.001988
  S   2.163110   2.068817  -0.001071
  C   3.977448   1.996470   0.316808
  H  -0.396919  -0.991475  -0.004552
  H  -0.393786   0.541285  -0.890018
  H  -0.393837   0.540050   0.886559
  H   4.347714   3.020971   0.350523
  H   4.492895   1.464720  -0.480391
  H   4.188248   1.514215   1.269172
10

  C  -0.022286   0.033280  -0.000000
  S   1.819339  -0.044682  -0.000000
  S   2.161352   2.069443   0.000000
  C   4.002977   1.991481   0.000000
  H  -0.396162  -0.990435   0.000000
  H  -0.391756   0.541601  -0.888337
  H  -0.391756   0.541602   0.888337
  H   4.376853   3.015196  -0.000000
  H   4.372447   1.483159  -0.888337
  H   4.372447   1.483160   0.888337
