26
Coordinates from ORCA-job mol
  C   0.00000000000000      0.00000000000000      0.00000000000000
  S   1.83000000000000      0.00000000000000      0.00000000000000
  S   2.15069100000000      2.02476100000000      0.00000000000000
  C   3.34299000000000      2.12576300000000      1.38460200000000
  H   -0.35486900000000      0.60578000000000     -0.83378500000000
  H   -0.35486900000000      0.60578000000000      0.83378500000000
  H   4.17161600000000      1.44494700000000      1.18974800000000
  H   2.90991000000000      1.64478200000000      2.26164200000000
  C   3.75001600000000      3.59680400000000      1.58945600000000
  H   4.46018300000000      3.65696400000000      2.41416400000000
  N   2.53712400000000      4.40973100000000      1.75958200000000
  C   4.26196000000000      4.16610700000000      0.25326400000000
  O   4.27269200000000      3.49870200000000     -0.69544800000000
  O   4.70407000000000      5.52391300000000      0.17710600000000
  H   1.62811800000000      3.96973800000000      1.74492300000000
  H   2.61345400000000      5.40610900000000      1.90622700000000
  H   4.98710500000000      5.71054200000000     -0.72103700000000
  C   -0.50137500000000     -1.45609900000000      0.00000000000000
  H   -1.59137500000000     -1.45609900000000      0.00000000000000
  N   0.11527300000000     -2.17458900000000      1.12446300000000
  C   0.14463700000000     -2.20880300000000     -1.17800900000000
  O   0.89229000000000     -1.66151400000000     -1.87592700000000
  O   -0.16072800000000     -3.58826800000000     -1.39875400000000
  H   0.74289200000000     -1.69002900000000      1.75007900000000
  H   -0.10040400000000     -3.14889700000000      1.28037400000000
  H   -0.69150600000000     -4.29544800000000     -1.02489400000000
