26
Coordinates from ORCA-job mol
  C   0.40008739459677      0.30364881231768     -0.50677566256686
  S   2.17135211297608     -0.21483253369707     -0.45390329065815
  S   3.12688714989657      1.58687942419951      0.04234104490503
  C   2.59580277705190      1.83289681227358      1.79735348222089
  H   0.15095806561456      0.70043585079348     -1.48853464620781
  H   0.22335751910405      1.07622760924268      0.24289887516963
  H   3.47369761930432      1.80218533151958      2.44178131065022
  H   1.92266982480877      1.03600262908037      2.09085326046906
  C   1.88724442741933      3.20160771149848      1.98773573446455
  H   1.64393124897922      3.29626813730236      3.04955319388348
  N   0.65110849781071      3.29978958941624      1.22168784914794
  C   2.91747763874901      4.34424651943098      1.66857350558908
  O   4.11226770936447      4.26614128291909      1.79572474033832
  O   2.28263962273801      5.47591814035083      1.22748912758695
  H   0.82500525443639      3.45175971810401      0.23325837981511
  H   0.03884252461049      4.02424816152875      1.58247007394266
  H   2.93292143230280      6.18272358431638      1.03443204128295
  C   -0.51399301378479     -0.92457672599384     -0.19478341325130
  H   -1.54605129597167     -0.58767207312195     -0.31779118190084
  N   -0.36259131114312     -1.50038393517028      1.13525240952722
  C   -0.30359161389312     -2.06510984167743     -1.27057030390711
  O   -0.18707137671632     -1.86460511828078     -2.45038664588623
  O   -0.29696744363541     -3.30575940999267     -0.72172332185676
  H   0.57900739244627     -1.44743338142321      1.50469477740744
  H   -1.01671642504385     -1.15602721295126      1.82771370053544
  H   -0.38011873202146     -3.18459808198553      0.25640995929909
